
  CDK    9/16/09,10:7

 31 34  0  0  0  0  0  0  0  0999 V2000
    4.4319    1.6500    0.0000 C   0  0  0  0  0  0  0  0  0  0  0  0
    4.4307    0.8227    0.0000 C   0  0  0  0  0  0  0  0  0  0  0  0
    5.1456    0.4098    0.0000 C   0  0  0  0  0  0  0  0  0  0  0  0
    5.8620    0.8231    0.0000 C   0  0  0  0  0  0  0  0  0  0  0  0
    5.8591    1.6537    0.0000 C   0  0  0  0  0  0  0  0  0  0  0  0
    5.1438    2.0628    0.0000 C   0  0  0  0  0  0  0  0  0  0  0  0
    5.1413    2.8878    0.0000 O   0  0  0  0  0  0  0  0  0  0  0  0
    4.4256    3.2982    0.0000 C   0  0  0  0  0  0  0  0  0  0  0  0
    3.7159    0.4107    0.0000 O   0  0  0  0  0  0  0  0  0  0  0  0
    3.0018    0.8238    0.0000 C   0  0  0  0  0  0  0  0  0  0  0  0
    6.5771    0.4118    0.0000 N   0  0  0  0  0  0  0  0  0  0  0  0
    6.5784   -0.4132    0.0000 C   0  0  0  0  0  0  0  0  0  0  0  0
    5.8633   -0.8253    0.0000 N   0  0  0  0  0  0  0  0  0  0  0  0
    5.8642   -1.6495    0.0000 C   0  0  0  0  0  0  0  0  0  0  0  0
    7.2916   -0.8208    0.0000 C   0  0  0  0  0  0  0  0  0  0  0  0
    8.0040   -0.4048    0.0000 C   0  0  0  0  0  0  0  0  0  0  0  0
    8.7205   -0.8138    0.0000 N   0  0  0  0  0  0  0  0  0  0  0  0
    8.0000    0.4202    0.0000 O   0  0  0  0  0  0  0  0  0  0  0  0
    5.1502   -2.0628    0.0000 N   0  0  0  0  0  0  0  0  0  0  0  0
    4.4353   -1.6511    0.0000 C   0  0  0  0  0  0  0  0  0  0  0  0
    4.4385   -0.8262    0.0000 C   0  0  0  0  0  0  0  0  0  0  0  0
    3.7277   -0.4146    0.0000 C   0  0  0  0  0  0  0  0  0  0  0  0
    3.0112   -0.8244    0.0000 C   0  0  0  0  0  0  0  0  0  0  0  0
    3.0101   -1.6503    0.0000 C   0  0  0  0  0  0  0  0  0  0  0  0
    3.7255   -2.0665    0.0000 C   0  0  0  0  0  0  0  0  0  0  0  0
    5.1540   -0.4156    0.0000 N   0  0  0  0  0  0  0  0  0  0  0  0
    7.2961   -1.6437    0.0000 C   0  0  0  0  0  0  0  0  0  0  0  0
    6.5825   -2.0645    0.0000 N   0  0  0  0  0  0  0  0  0  0  0  0
    6.7621   -2.8732    0.0000 N   0  0  0  0  0  0  0  0  0  0  0  0
    7.5869   -2.9523    0.0000 C   0  0  0  0  0  0  0  0  0  0  0  0
    7.9167   -2.1923    0.0000 N   0  0  0  0  0  0  0  0  0  0  0  0
 27 15  1  0  0  0  0 
 15 12  2  0  0  0  0 
  3  4  2  0  0  0  0 
 15 16  1  0  0  0  0 
  7  8  1  0  0  0  0 
 16 17  1  0  0  0  0 
 16 18  2  0  0  0  0 
  2  9  1  0  0  0  0 
 14 19  1  0  0  0  0 
  4  5  1  0  0  0  0 
 20 19  1  1  0  0  0 
 20 21  1  0  0  0  0 
  9 10  1  0  0  0  0 
  2  3  1  0  0  0  0 
  4 11  1  0  0  0  0 
  5  6  2  0  0  0  0 
 11 12  1  0  0  0  0 
 20 25  1  0  0  0  0 
 21 22  1  0  0  0  0 
 22 23  1  0  0  0  0 
 23 24  1  0  0  0  0 
 24 25  1  0  0  0  0 
  6  1  1  0  0  0  0 
 21 26  1  1  0  0  0 
 27 28  1  0  0  0  0 
 12 13  1  0  0  0  0 
  1  2  2  0  0  0  0 
 13 14  2  0  0  0  0 
 14 28  1  0  0  0  0 
  6  7  1  0  0  0  0 
 28 29  1  0  0  0  0 
 29 30  2  0  0  0  0 
 30 31  1  0  0  0  0 
 31 27  2  0  0  0  0 
M  END

>  <pIC50>
8.39794000867

$$$$

  SciTegic01161211232D

 36 43  0  0  0  0            999 V2000
    5.1493   -6.8574    0.0000 C   0  0  1  0  0  0
    4.8327   -6.1700    0.0000 N   0  0
    6.8991   -6.2575    0.0000 N   0  0
    5.4451   -5.5701    0.0000 C   0  0
    6.3409   -5.6118    0.0000 C   0  0
    5.8409   -6.3784    0.0000 O   0  0
    6.5658   -6.7949    0.0000 C   0  0  2  0  0  0
    6.7574   -4.9826    0.0000 C   0  0
    5.1160   -4.9493    0.0000 C   0  0
    6.3825   -4.3036    0.0000 C   0  0
    5.5785   -4.2661    0.0000 C   0  0
    4.1702   -5.8659    0.0000 C   0  0
    7.6407   -5.9992    0.0000 C   0  0
    5.1243   -7.7865    0.0000 C   0  0  1  0  0  0
    7.5823   -5.1951    0.0000 C   0  0
    4.3244   -5.0826    0.0000 C   0  0
    6.5533   -7.7573    0.0000 C   0  0
    6.6658   -3.5787    0.0000 C   0  0
    6.0450   -3.0371    0.0000 N   0  0
    5.8409   -8.2406    0.0000 C   0  0  1  0  0  0
    5.3660   -3.5120    0.0000 C   0  0
    7.4823   -3.3621    0.0000 O   0  0
    4.3411   -7.0283    0.0000 C   0  0
    5.8534   -9.0655    0.0000 N   0  0
    4.3952   -8.1697    0.0000 O   0  0
    3.3954   -6.1784    0.0000 C   0  0
    8.3864   -6.3659    0.0000 C   0  0
    8.2531   -4.7369    0.0000 C   0  0
    3.7078   -4.5369    0.0000 C   0  0
    6.5658   -9.4820    0.0000 C   0  0
    4.3786   -8.9946    0.0000 C   0  0
    2.9121   -4.8161    0.0000 C   0  0
    2.7621   -5.6326    0.0000 C   0  0
    9.0696   -5.9034    0.0000 C   0  0
    8.9946   -5.0785    0.0000 C   0  0
    7.3157   -7.1366    0.0000 H   0  0
  2  1  1  0
  3  7  1  0
  4  2  1  0
  5  4  2  0
  6  1  1  0
  7  6  1  0
  8  5  1  0
  9  4  1  0
 10 11  1  0
 11  9  2  0
 12  2  1  0
 13  3  1  0
 14  1  1  0
 15  8  1  0
 16 12  2  0
 17  7  1  0
 18 10  1  0
 19 21  1  0
 20 14  1  0
 21 11  1  0
 22 18  2  0
  1 23  1  6
 20 24  1  1
 14 25  1  1
 26 12  1  0
 27 13  1  0
 28 15  1  0
 29 16  1  0
 30 24  1  0
 31 25  1  0
 32 33  1  0
 33 26  2  0
 34 27  2  0
 35 28  2  0
  7 36  1  6
 17 20  1  0
 16  9  1  0
  3  5  1  0
 32 29  2  0
 10  8  2  0
 13 15  2  0
 19 18  1  0
 35 34  1  0
M  END

>  <pIC50>
8.52287874528

$$$$

  CDK    9/16/09,10:7

 28 30  0  0  0  0  0  0  0  0999 V2000
   12.6444    2.3459    0.0000 C   0  0  0  0  0  0  0  0  0  0  0  0
   12.6432    1.5185    0.0000 C   0  0  0  0  0  0  0  0  0  0  0  0
   13.3581    1.1056    0.0000 N   0  0  0  0  0  0  0  0  0  0  0  0
   14.0745    1.5190    0.0000 C   0  0  0  0  0  0  0  0  0  0  0  0
   14.0716    2.3495    0.0000 N   0  0  0  0  0  0  0  0  0  0  0  0
   13.3563    2.7586    0.0000 C   0  0  0  0  0  0  0  0  0  0  0  0
   14.7896    1.1076    0.0000 N   0  0  0  0  0  0  0  0  0  0  0  0
   14.7909    0.2826    0.0000 C   0  0  0  0  0  0  0  0  0  0  0  0
   14.0758   -0.1294    0.0000 C   0  0  0  0  0  0  0  0  0  0  0  0
   14.0767   -0.9537    0.0000 C   0  0  0  0  0  0  0  0  0  0  0  0
   14.7924   -1.3659    0.0000 C   0  0  0  0  0  0  0  0  0  0  0  0
   15.5086   -0.9478    0.0000 C   0  0  0  0  0  0  0  0  0  0  0  0
   15.5041   -0.1250    0.0000 C   0  0  0  0  0  0  0  0  0  0  0  0
   13.3627   -1.3669    0.0000 C   0  0  0  0  0  0  0  0  0  0  0  0
   16.2251   -1.3567    0.0000 C   0  0  0  0  0  0  0  0  0  0  0  0
   11.8891    1.1943    0.0000 C   0  0  0  0  0  0  0  0  0  0  0  0
   11.1808    1.6173    0.0000 N   0  0  0  0  0  0  0  0  0  0  0  0
   10.5596    1.0743    0.0000 C   0  0  0  0  0  0  0  0  0  0  0  0
   10.8840    0.3157    0.0000 C   0  0  0  0  0  0  0  0  0  0  0  0
   11.7056    0.3900    0.0000 S   0  0  0  0  0  0  0  0  0  0  0  0
    9.7552    1.2578    0.0000 C   0  0  0  0  0  0  0  0  0  0  0  0
   10.4610   -0.3926    0.0000 C   0  0  0  0  0  0  0  0  0  0  0  0
    9.6361   -0.3805    0.0000 O   0  0  0  0  0  0  0  0  0  0  0  0
   10.8630   -1.1131    0.0000 N   0  0  0  0  0  0  0  0  0  0  0  0
   10.4401   -1.8214    0.0000 C   0  0  0  0  0  0  0  0  0  0  0  0
   10.8420   -2.5418    0.0000 C   0  0  0  0  0  0  0  0  0  0  0  0
    9.6151   -1.8093    0.0000 C   0  0  0  0  0  0  0  0  0  0  0  0
   11.6669   -2.5540    0.0000 O   0  0  0  0  0  0  0  0  0  0  0  0
  1  2  2  0  0  0  0 
 10 14  1  0  0  0  0 
  4  7  1  0  0  0  0 
 12 15  1  0  0  0  0 
 16 17  2  0  0  0  0 
  3  4  2  0  0  0  0 
  7  8  1  0  0  0  0 
  8  9  2  0  0  0  0 
  4  5  1  0  0  0  0 
 17 18  1  0  0  0  0 
 18 19  2  0  0  0  0 
 19 20  1  0  0  0  0 
 20 16  1  0  0  0  0 
  2 16  1  0  0  0  0 
  9 10  1  0  0  0  0 
 18 21  1  0  0  0  0 
  2  3  1  0  0  0  0 
 19 22  1  0  0  0  0 
 10 11  2  0  0  0  0 
 22 23  2  0  0  0  0 
  5  6  2  0  0  0  0 
 22 24  1  0  0  0  0 
 11 12  1  0  0  0  0 
 24 25  1  0  0  0  0 
  6  1  1  0  0  0  0 
 25 26  1  0  0  0  0 
 12 13  2  0  0  0  0 
 25 27  1  1  0  0  0 
 13  8  1  0  0  0  0 
 26 28  1  0  0  0  0 
M  END

>  <pIC50>
8.04575749056

$$$$

  CDK    9/16/09,10:7

 29 32  0  0  0  0  0  0  0  0999 V2000
   -1.1500   -6.2708    0.0000 C   0  0  0  0  0  0  0  0  0  0  0  0
   -1.1500   -7.0958    0.0000 N   0  0  0  0  0  0  0  0  0  0  0  0
   -0.4380   -7.5042    0.0000 C   0  0  0  0  0  0  0  0  0  0  0  0
   -0.4380   -5.8542    0.0000 C   0  0  0  0  0  0  0  0  0  0  0  0
    0.2740   -6.2708    0.0000 C   0  0  0  0  0  0  0  0  0  0  0  0
    0.2786   -7.0968    0.0000 N   0  0  0  0  0  0  0  0  0  0  0  0
    1.0656   -7.3478    0.0000 C   0  0  0  0  0  0  0  0  0  0  0  0
    1.5475   -6.6768    0.0000 C   0  0  0  0  0  0  0  0  0  0  0  0
    1.0582   -6.0113    0.0000 N   0  0  0  0  0  0  0  0  0  0  0  0
   -0.4380   -5.0292    0.0000 C   0  0  0  0  0  0  0  0  0  0  0  0
    0.2765   -4.6167    0.0000 O   0  0  0  0  0  0  0  0  0  0  0  0
   -1.1525   -4.6167    0.0000 N   0  0  0  0  0  0  0  0  0  0  0  0
   -1.8657   -5.8604    0.0000 N   0  0  0  0  0  0  0  0  0  0  0  0
   -2.5789   -6.2750    0.0000 C   0  0  0  0  0  0  0  0  0  0  0  0
   -3.2961   -5.8651    0.0000 C   0  0  0  0  0  0  0  0  0  0  0  0
   -4.0078   -6.2790    0.0000 C   0  0  0  0  0  0  0  0  0  0  0  0
   -4.0014   -7.1049    0.0000 C   0  0  0  0  0  0  0  0  0  0  0  0
   -3.2862   -7.5151    0.0000 C   0  0  0  0  0  0  0  0  0  0  0  0
   -2.5764   -7.0988    0.0000 C   0  0  0  0  0  0  0  0  0  0  0  0
   -3.2809   -8.3401    0.0000 F   0  0  0  0  0  0  0  0  0  0  0  0
   -4.7245   -5.8704    0.0000 F   0  0  0  0  0  0  0  0  0  0  0  0
   -0.4395   -8.3292    0.0000 N   0  0  0  0  0  0  0  0  0  0  0  0
   -1.1548   -8.7403    0.0000 C   0  0  0  0  0  0  0  0  0  0  0  0
   -1.8660   -8.3264    0.0000 C   0  0  0  0  0  0  0  0  0  0  0  0
   -2.5791   -8.7340    0.0000 C   0  0  0  0  0  0  0  0  0  0  0  0
   -2.5850   -9.5594    0.0000 C   0  0  0  0  0  0  0  0  0  0  0  0
   -1.8714   -9.9754    0.0000 C   0  0  0  0  0  0  0  0  0  0  0  0
   -1.1521   -9.5661    0.0000 C   0  0  0  0  0  0  0  0  0  0  0  0
   -0.4382   -9.9797    0.0000 N   0  0  0  0  0  0  0  0  0  0  0  0
 13 14  1  0  0  0  0 
  2  3  2  0  0  0  0 
 14 15  2  0  0  0  0 
  3  6  1  0  0  0  0 
 15 16  1  0  0  0  0 
  6  7  1  0  0  0  0 
 16 17  2  0  0  0  0 
  7  8  2  0  0  0  0 
 17 18  1  0  0  0  0 
  8  9  1  0  0  0  0 
 18 19  2  0  0  0  0 
 19 14  1  0  0  0  0 
  9  5  2  0  0  0  0 
 18 20  1  0  0  0  0 
  5  4  1  0  0  0  0 
 16 21  1  0  0  0  0 
  4 10  1  0  0  0  0 
  3 22  1  0  0  0  0 
  5  6  1  0  0  0  0 
 23 22  1  1  0  0  0 
 23 24  1  0  0  0  0 
 10 11  2  0  0  0  0 
 10 12  1  0  0  0  0 
  1  2  1  0  0  0  0 
  1 13  1  0  0  0  0 
 23 28  1  0  0  0  0 
 24 25  1  0  0  0  0 
 25 26  1  0  0  0  0 
 26 27  1  0  0  0  0 
 27 28  1  0  0  0  0 
  1  4  2  0  0  0  0 
 28 29  1  1  0  0  0 
M  END

>  <pIC50>
7.52287874528

$$$$

  Mrv0541 04051115152D          

 34 37  0  0  0  0            999 V2000
   -3.1543   -0.2410    0.0000 N   0  0  0  0  0  0  0  0  0  0  0  0
    1.1325   -0.2410    0.0000 N   0  0  0  0  0  0  0  0  0  0  0  0
   -2.4399   -0.6535    0.0000 C   0  0  0  0  0  0  0  0  0  0  0  0
    0.4180   -0.6535    0.0000 C   0  0  0  0  0  0  0  0  0  0  0  0
   -3.8688   -0.6535    0.0000 C   0  0  0  0  0  0  0  0  0  0  0  0
   -1.7254   -0.2410    0.0000 N   0  0  0  0  0  0  0  0  0  0  0  0
    1.8470   -0.6535    0.0000 C   0  0  0  0  0  0  0  0  0  0  0  0
   -3.1543   -1.8910    0.0000 O   0  0  0  0  0  0  0  0  0  0  0  0
   -3.8688   -1.4785    0.0000 C   0  0  0  0  0  0  0  0  0  0  0  0
   -0.2964   -0.2410    0.0000 N   0  0  0  0  0  0  0  0  0  0  0  0
    0.4180   -1.4785    0.0000 C   0  0  0  0  0  0  0  0  0  0  0  0
    2.5614    2.2340    0.0000 C   0  0  0  0  0  0  0  0  0  0  0  0
   -2.4399   -1.4785    0.0000 C   0  0  0  0  0  0  0  0  0  0  0  0
   -1.0109   -0.6535    0.0000 C   0  0  0  0  0  0  0  0  0  0  0  0
    3.2759    1.8215    0.0000 C   0  0  0  0  0  0  0  0  0  0  0  0
    1.8470    1.8215    0.0000 C   0  0  0  0  0  0  0  0  0  0  0  0
    1.8470   -1.4785    0.0000 N   0  0  0  0  0  0  0  0  0  0  0  0
    2.5614    0.5840    0.0000 C   0  0  0  0  0  0  0  0  0  0  0  0
    3.2759    0.9965    0.0000 C   0  0  0  0  0  0  0  0  0  0  0  0
    1.8470    0.9965    0.0000 C   0  0  0  0  0  0  0  0  0  0  0  0
    2.5614   -0.2410    0.0000 N   0  0  0  0  0  0  0  0  0  0  0  0
    1.1325   -1.8910    0.0000 C   0  0  0  0  0  0  0  0  0  0  0  0
   -4.5833   -0.2410    0.0000 O   0  0  0  0  0  0  0  0  0  0  0  0
   -1.7254   -1.8910    0.0000 C   0  0  0  0  0  0  0  0  0  0  0  0
   -0.2964   -1.8910    0.0000 F   0  0  0  0  0  0  0  0  0  0  0  0
   -1.0109   -1.4785    0.0000 C   0  0  0  0  0  0  0  0  0  0  0  0
    2.5614    3.0590    0.0000 O   0  0  0  0  0  0  0  0  0  0  0  0
    1.1325    2.2340    0.0000 O   0  0  0  0  0  0  0  0  0  0  0  0
    3.9904    2.2340    0.0000 O   0  0  0  0  0  0  0  0  0  0  0  0
   -4.6933   -1.5073    0.0000 C   0  0  0  0  0  0  0  0  0  0  0  0
   -4.3060   -2.1781    0.0000 C   0  0  0  0  0  0  0  0  0  0  0  0
    1.8470    3.4715    0.0000 C   0  0  0  0  0  0  0  0  0  0  0  0
    0.4180    1.8215    0.0000 C   0  0  0  0  0  0  0  0  0  0  0  0
    4.7049    1.8215    0.0000 C   0  0  0  0  0  0  0  0  0  0  0  0
  3  1  1  0  0  0  0
  5  1  1  0  0  0  0
  4  2  2  0  0  0  0
  7  2  1  0  0  0  0
  3  6  2  0  0  0  0
 13  3  1  0  0  0  0
  4 10  1  0  0  0  0
 11  4  1  0  0  0  0
  5  9  1  0  0  0  0
  5 23  2  0  0  0  0
 14  6  1  0  0  0  0
  7 17  2  0  0  0  0
  7 21  1  0  0  0  0
  9  8  1  0  0  0  0
 13  8  1  0  0  0  0
 30  9  1  0  0  0  0
 31  9  1  0  0  0  0
 14 10  1  0  0  0  0
 11 22  2  0  0  0  0
 11 25  1  0  0  0  0
 12 15  2  0  0  0  0
 12 16  1  0  0  0  0
 12 27  1  0  0  0  0
 13 24  2  0  0  0  0
 14 26  2  0  0  0  0
 15 19  1  0  0  0  0
 15 29  1  0  0  0  0
 16 20  2  0  0  0  0
 16 28  1  0  0  0  0
 22 17  1  0  0  0  0
 18 19  2  0  0  0  0
 18 20  1  0  0  0  0
 18 21  1  0  0  0  0
 24 26  1  0  0  0  0
 32 27  1  0  0  0  0
 33 28  1  0  0  0  0
 34 29  1  0  0  0  0
M  END

>  <pIC50>
7.38721614328

$$$$

  CDK    9/16/09,10:7

 25 27  0  0  0  0  0  0  0  0999 V2000
   13.0944   -7.2541    0.0000 N   0  0  0  0  0  0  0  0  0  0  0  0
   13.0932   -8.0815    0.0000 C   0  0  0  0  0  0  0  0  0  0  0  0
   13.8081   -8.4944    0.0000 C   0  0  0  0  0  0  0  0  0  0  0  0
   14.5245   -8.0810    0.0000 C   0  0  0  0  0  0  0  0  0  0  0  0
   14.5216   -7.2505    0.0000 C   0  0  0  0  0  0  0  0  0  0  0  0
   13.8063   -6.8414    0.0000 C   0  0  0  0  0  0  0  0  0  0  0  0
   13.8038   -6.0164    0.0000 N   0  0  0  0  0  0  0  0  0  0  0  0
   13.0881   -5.6060    0.0000 C   0  0  0  0  0  0  0  0  0  0  0  0
   13.0890   -4.7817    0.0000 C   0  0  0  0  0  0  0  0  0  0  0  0
   12.3741   -4.3715    0.0000 C   0  0  0  0  0  0  0  0  0  0  0  0
   11.6599   -4.7861    0.0000 C   0  0  0  0  0  0  0  0  0  0  0  0
   11.6650   -5.6154    0.0000 C   0  0  0  0  0  0  0  0  0  0  0  0
   12.3805   -6.0220    0.0000 C   0  0  0  0  0  0  0  0  0  0  0  0
   10.9533   -6.0325    0.0000 C   0  0  0  0  0  0  0  0  0  0  0  0
   15.2346   -6.8353    0.0000 C   0  0  0  0  0  0  0  0  0  0  0  0
   15.9506   -7.2451    0.0000 N   0  0  0  0  0  0  0  0  0  0  0  0
   15.2314   -6.0103    0.0000 O   0  0  0  0  0  0  0  0  0  0  0  0
   12.3785   -8.4934    0.0000 N   0  0  0  0  0  0  0  0  0  0  0  0
   11.6643   -8.0804    0.0000 C   0  0  0  0  0  0  0  0  0  0  0  0
   11.6689   -7.2557    0.0000 C   0  0  0  0  0  0  0  0  0  0  0  0
   10.9589   -6.8428    0.0000 C   0  0  0  0  0  0  0  0  0  0  0  0
   10.2417   -7.2512    0.0000 C   0  0  0  0  0  0  0  0  0  0  0  0
   10.2390   -8.0771    0.0000 C   0  0  0  0  0  0  0  0  0  0  0  0
   10.9536   -8.4947    0.0000 C   0  0  0  0  0  0  0  0  0  0  0  0
   10.9532   -9.3197    0.0000 N   0  0  0  0  0  0  0  0  0  0  0  0
  6  1  1  0  0  0  0 
 12 13  2  0  0  0  0 
 13  8  1  0  0  0  0 
  1  2  2  0  0  0  0 
 12 14  1  0  0  0  0 
  6  7  1  0  0  0  0 
  5 15  1  0  0  0  0 
  3  4  2  0  0  0  0 
 15 16  1  0  0  0  0 
  7  8  1  0  0  0  0 
 15 17  2  0  0  0  0 
  2 18  1  0  0  0  0 
  8  9  2  0  0  0  0 
 19 18  1  1  0  0  0 
 19 20  1  0  0  0  0 
  4  5  1  0  0  0  0 
  9 10  1  0  0  0  0 
  2  3  1  0  0  0  0 
 10 11  2  0  0  0  0 
  5  6  2  0  0  0  0 
 19 24  1  0  0  0  0 
 20 21  1  0  0  0  0 
 21 22  1  0  0  0  0 
 22 23  1  0  0  0  0 
 23 24  1  0  0  0  0 
 11 12  1  0  0  0  0 
 24 25  1  1  0  0  0 
M  END

>  <pIC50>
7.30102999566

$$$$

  CDK    9/16/09,10:7

 32 35  0  0  0  0  0  0  0  0999 V2000
   -0.3461  -13.7652    0.0000 C   0  0  0  0  0  0  0  0  0  0  0  0
    0.3703  -13.3519    0.0000 C   0  0  0  0  0  0  0  0  0  0  0  0
    0.3675  -12.5213    0.0000 C   0  0  0  0  0  0  0  0  0  0  0  0
   -0.3479  -12.1122    0.0000 C   0  0  0  0  0  0  0  0  0  0  0  0
   -1.0609  -13.3523    0.0000 C   0  0  0  0  0  0  0  0  0  0  0  0
   -1.0643  -12.5234    0.0000 C   0  0  0  0  0  0  0  0  0  0  0  0
   -1.8537  -12.2705    0.0000 N   0  0  0  0  0  0  0  0  0  0  0  0
   -2.3382  -12.9431    0.0000 C   0  0  0  0  0  0  0  0  0  0  0  0
   -1.8482  -13.6116    0.0000 C   0  0  0  0  0  0  0  0  0  0  0  0
   -3.1632  -12.9465    0.0000 O   0  0  0  0  0  0  0  0  0  0  0  0
    1.0855  -13.7632    0.0000 S   0  0  0  0  0  0  0  0  0  0  0  0
    1.7958  -14.1750    0.0000 N   0  0  0  0  0  0  0  0  0  0  0  0
    1.4980  -13.0488    0.0000 O   0  0  0  0  0  0  0  0  0  0  0  0
    0.6763  -14.4796    0.0000 O   0  0  0  0  0  0  0  0  0  0  0  0
   -2.0999  -14.3973    0.0000 C   0  0  0  0  0  0  0  0  0  0  0  0
   -2.9062  -14.5721    0.0000 C   0  0  0  0  0  0  0  0  0  0  0  0
   -3.5241  -14.0222    0.0000 C   0  0  0  0  0  0  0  0  0  0  0  0
   -4.2369  -14.4376    0.0000 N   0  0  0  0  0  0  0  0  0  0  0  0
   -4.9919  -14.1051    0.0000 C   0  0  0  0  0  0  0  0  0  0  0  0
   -3.2412  -15.3266    0.0000 C   0  0  0  0  0  0  0  0  0  0  0  0
   -4.0581  -15.2454    0.0000 C   0  0  0  0  0  0  0  0  0  0  0  0
   -4.5351  -15.9113    0.0000 C   0  0  0  0  0  0  0  0  0  0  0  0
   -4.1962  -16.6588    0.0000 C   0  0  0  0  0  0  0  0  0  0  0  0
   -3.3758  -16.7364    0.0000 C   0  0  0  0  0  0  0  0  0  0  0  0
   -2.9026  -16.0695    0.0000 C   0  0  0  0  0  0  0  0  0  0  0  0
   -3.0322  -17.4864    0.0000 O   0  0  0  0  0  0  0  0  0  0  0  0
   -3.5099  -18.1590    0.0000 C   0  0  0  0  0  0  0  0  0  0  0  0
    1.7944  -15.0000    0.0000 C   0  0  0  0  0  0  0  0  0  0  0  0
    1.0792  -15.4113    0.0000 C   0  0  0  0  0  0  0  0  0  0  0  0
    1.0778  -16.2363    0.0000 C   0  0  0  0  0  0  0  0  0  0  0  0
    0.3626  -16.6475    0.0000 N   0  0  0  0  0  0  0  0  0  0  0  0
    1.7916  -16.6500    0.0000 O   0  0  0  0  0  0  0  0  0  0  0  0
  3  4  2  0  0  0  0 
 15 16  1  0  0  0  0 
 16 17  2  0  0  0  0 
  6  7  1  0  0  0  0 
  7  8  1  0  0  0  0 
 17 18  1  0  0  0  0 
 18 21  1  0  0  0  0 
 20 16  1  0  0  0  0 
  8  9  1  0  0  0  0 
 18 19  1  0  0  0  0 
  9  5  1  0  0  0  0 
  4  6  1  0  0  0  0 
 20 21  2  0  0  0  0 
  8 10  2  0  0  0  0 
 21 22  1  0  0  0  0 
  5  6  2  0  0  0  0 
 22 23  2  0  0  0  0 
  2 11  1  0  0  0  0 
 23 24  1  0  0  0  0 
  1  2  2  0  0  0  0 
 24 25  2  0  0  0  0 
 25 20  1  0  0  0  0 
 11 12  1  0  0  0  0 
 24 26  1  0  0  0  0 
  5  1  1  0  0  0  0 
 26 27  1  0  0  0  0 
 11 13  2  0  0  0  0 
 12 28  1  0  0  0  0 
  2  3  1  0  0  0  0 
 28 29  1  0  0  0  0 
 11 14  2  0  0  0  0 
 29 30  1  0  0  0  0 
 30 31  1  0  0  0  0 
  9 15  2  0  0  0  0 
 30 32  2  0  0  0  0 
M  END

>  <pIC50>
7.22184874962

$$$$

  CDK    9/16/09,10:7

 24 26  0  0  0  0  0  0  0  0999 V2000
    2.9208  -14.1417    0.0000 C   0  0  0  0  0  0  0  0  0  0  0  0
    2.9208  -14.9667    0.0000 C   0  0  0  0  0  0  0  0  0  0  0  0
    3.6329  -15.3750    0.0000 N   0  0  0  0  0  0  0  0  0  0  0  0
    3.6329  -13.7250    0.0000 C   0  0  0  0  0  0  0  0  0  0  0  0
    4.3449  -14.1417    0.0000 C   0  0  0  0  0  0  0  0  0  0  0  0
    4.3414  -14.9667    0.0000 C   0  0  0  0  0  0  0  0  0  0  0  0
    5.0501  -15.3799    0.0000 C   0  0  0  0  0  0  0  0  0  0  0  0
    5.7669  -14.9727    0.0000 C   0  0  0  0  0  0  0  0  0  0  0  0
    5.7704  -14.1477    0.0000 N   0  0  0  0  0  0  0  0  0  0  0  0
    5.0571  -13.7299    0.0000 C   0  0  0  0  0  0  0  0  0  0  0  0
    5.0595  -12.9049    0.0000 N   0  0  0  0  0  0  0  0  0  0  0  0
    4.3462  -12.4904    0.0000 C   0  0  0  0  0  0  0  0  0  0  0  0
    3.6306  -12.9008    0.0000 C   0  0  0  0  0  0  0  0  0  0  0  0
    2.9173  -12.4863    0.0000 C   0  0  0  0  0  0  0  0  0  0  0  0
    2.2016  -12.8967    0.0000 N   0  0  0  0  0  0  0  0  0  0  0  0
    6.4777  -15.3875    0.0000 C   0  0  0  0  0  0  0  0  0  0  0  0
    6.4717  -16.2136    0.0000 C   0  0  0  0  0  0  0  0  0  0  0  0
    7.1830  -16.6300    0.0000 C   0  0  0  0  0  0  0  0  0  0  0  0
    7.9008  -16.2215    0.0000 C   0  0  0  0  0  0  0  0  0  0  0  0
    7.9028  -15.3922    0.0000 C   0  0  0  0  0  0  0  0  0  0  0  0
    7.1909  -14.9795    0.0000 C   0  0  0  0  0  0  0  0  0  0  0  0
    8.6135  -16.6370    0.0000 C   0  0  0  0  0  0  0  0  0  0  0  0
    8.6100  -17.4620    0.0000 C   0  0  0  0  0  0  0  0  0  0  0  0
    9.3297  -16.2276    0.0000 C   0  0  0  0  0  0  0  0  0  0  0  0
 11 12  1  0  0  0  0 
  1  2  2  0  0  0  0 
 12 13  1  0  0  0  0 
  1  4  1  0  0  0  0 
 13 14  1  0  0  0  0 
  2  3  1  0  0  0  0 
 14 15  1  0  0  0  0 
  3  6  2  0  0  0  0 
  5  4  2  0  0  0  0 
 16 17  2  0  0  0  0 
  5 10  1  0  0  0  0 
 17 18  1  0  0  0  0 
  6  7  1  0  0  0  0 
 18 19  2  0  0  0  0 
  7  8  2  0  0  0  0 
 19 20  1  0  0  0  0 
  8  9  1  0  0  0  0 
 20 21  2  0  0  0  0 
 21 16  1  0  0  0  0 
  8 16  1  0  0  0  0 
  9 10  2  0  0  0  0 
 19 22  1  0  0  0  0 
  5  6  1  0  0  0  0 
 22 23  1  0  0  0  0 
 10 11  1  0  0  0  0 
 22 24  1  0  0  0  0 
M  END

>  <pIC50>
7.04575749056

$$$$

  CDK    9/16/09,10:7

 21 22  0  0  0  0  0  0  0  0999 V2000
   14.7444  -12.8375    0.0000 C   0  0  0  0  0  0  0  0  0  0  0  0
   14.7432  -13.6648    0.0000 C   0  0  0  0  0  0  0  0  0  0  0  0
   15.4581  -14.0777    0.0000 C   0  0  0  0  0  0  0  0  0  0  0  0
   16.1745  -13.6644    0.0000 C   0  0  0  0  0  0  0  0  0  0  0  0
   16.1716  -12.8338    0.0000 C   0  0  0  0  0  0  0  0  0  0  0  0
   15.4563  -12.4247    0.0000 C   0  0  0  0  0  0  0  0  0  0  0  0
   14.0285  -14.0768    0.0000 C   0  0  0  0  0  0  0  0  0  0  0  0
   15.4579  -14.9027    0.0000 N   0  0  0  0  0  0  0  0  0  0  0  0
   14.7433  -15.3150    0.0000 C   0  0  0  0  0  0  0  0  0  0  0  0
   14.0324  -14.8993    0.0000 N   0  0  0  0  0  0  0  0  0  0  0  0
   13.3183  -15.3109    0.0000 C   0  0  0  0  0  0  0  0  0  0  0  0
   13.3176  -16.1368    0.0000 N   0  0  0  0  0  0  0  0  0  0  0  0
   14.0370  -16.5493    0.0000 C   0  0  0  0  0  0  0  0  0  0  0  0
   14.7482  -16.1353    0.0000 C   0  0  0  0  0  0  0  0  0  0  0  0
   12.6041  -14.8979    0.0000 N   0  0  0  0  0  0  0  0  0  0  0  0
   15.4646  -16.5444    0.0000 C   0  0  0  0  0  0  0  0  0  0  0  0
   15.4685  -17.3694    0.0000 O   0  0  0  0  0  0  0  0  0  0  0  0
   16.1771  -16.1285    0.0000 N   0  0  0  0  0  0  0  0  0  0  0  0
   11.8893  -15.3099    0.0000 C   0  0  0  0  0  0  0  0  0  0  0  0
   11.1752  -14.8968    0.0000 C   0  0  0  0  0  0  0  0  0  0  0  0
   10.4604  -15.3088    0.0000 N   0  0  0  0  0  0  0  0  0  0  0  0
  2  3  1  0  0  0  0 
 10 11  1  0  0  0  0 
  5  6  2  0  0  0  0 
 11 12  2  0  0  0  0 
  6  1  1  0  0  0  0 
 12 13  1  0  0  0  0 
  1  2  2  0  0  0  0 
 13 14  2  0  0  0  0 
 14  9  1  0  0  0  0 
  2  7  1  0  0  0  0 
 11 15  1  0  0  0  0 
  3  4  2  0  0  0  0 
 14 16  1  0  0  0  0 
  3  8  1  0  0  0  0 
 16 17  2  0  0  0  0 
 16 18  1  0  0  0  0 
  8  9  1  0  0  0  0 
 15 19  1  0  0  0  0 
  4  5  1  0  0  0  0 
 19 20  1  0  0  0  0 
  9 10  2  0  0  0  0 
 20 21  1  0  0  0  0 
M  END

>  <pIC50>
6.63827216398

$$$$

  CDK    9/16/09,10:7

 23 25  0  0  0  0  0  0  0  0999 V2000
   -4.5598  -19.8333    0.0000 C   0  0  0  0  0  0  0  0  0  0  0  0
   -4.5609  -20.6607    0.0000 C   0  0  0  0  0  0  0  0  0  0  0  0
   -3.8461  -21.0735    0.0000 C   0  0  0  0  0  0  0  0  0  0  0  0
   -3.1297  -20.6602    0.0000 C   0  0  0  0  0  0  0  0  0  0  0  0
   -3.1325  -19.8297    0.0000 C   0  0  0  0  0  0  0  0  0  0  0  0
   -3.8479  -19.4205    0.0000 C   0  0  0  0  0  0  0  0  0  0  0  0
   -3.8463  -21.8985    0.0000 O   0  0  0  0  0  0  0  0  0  0  0  0
   -2.4196  -19.4145    0.0000 N   0  0  0  0  0  0  0  0  0  0  0  0
   -1.7036  -19.8243    0.0000 C   0  0  0  0  0  0  0  0  0  0  0  0
   -1.7038  -20.6469    0.0000 N   0  0  0  0  0  0  0  0  0  0  0  0
   -0.9887  -21.0567    0.0000 C   0  0  0  0  0  0  0  0  0  0  0  0
   -0.2748  -20.6414    0.0000 N   0  0  0  0  0  0  0  0  0  0  0  0
   -0.2805  -19.8122    0.0000 C   0  0  0  0  0  0  0  0  0  0  0  0
   -0.9963  -19.4062    0.0000 C   0  0  0  0  0  0  0  0  0  0  0  0
   -1.0037  -18.5812    0.0000 F   0  0  0  0  0  0  0  0  0  0  0  0
   -0.9860  -21.8816    0.0000 N   0  0  0  0  0  0  0  0  0  0  0  0
   -0.2701  -22.2918    0.0000 C   0  0  0  0  0  0  0  0  0  0  0  0
   -0.2709  -23.1178    0.0000 C   0  0  0  0  0  0  0  0  0  0  0  0
    0.4441  -23.5278    0.0000 C   0  0  0  0  0  0  0  0  0  0  0  0
    1.1582  -23.1129    0.0000 C   0  0  0  0  0  0  0  0  0  0  0  0
    1.1528  -22.2837    0.0000 C   0  0  0  0  0  0  0  0  0  0  0  0
    0.4373  -21.8773    0.0000 C   0  0  0  0  0  0  0  0  0  0  0  0
    0.4464  -24.3528    0.0000 O   0  0  0  0  0  0  0  0  0  0  0  0
  5  6  2  0  0  0  0 
 11 12  2  0  0  0  0 
  6  1  1  0  0  0  0 
 12 13  1  0  0  0  0 
  1  2  2  0  0  0  0 
 13 14  2  0  0  0  0 
 14  9  1  0  0  0  0 
  3  7  1  0  0  0  0 
 14 15  1  0  0  0  0 
  3  4  2  0  0  0  0 
 11 16  1  0  0  0  0 
  5  8  1  0  0  0  0 
 16 17  1  0  0  0  0 
 17 18  2  0  0  0  0 
  8  9  1  0  0  0  0 
 18 19  1  0  0  0  0 
  4  5  1  0  0  0  0 
 19 20  2  0  0  0  0 
  9 10  2  0  0  0  0 
 20 21  1  0  0  0  0 
  2  3  1  0  0  0  0 
 21 22  2  0  0  0  0 
 22 17  1  0  0  0  0 
 10 11  1  0  0  0  0 
 19 23  1  0  0  0  0 
M  END

>  <pIC50>
6.52287874528

$$$$

  CDK    9/16/09,10:7

 25 27  0  0  0  0  0  0  0  0999 V2000
    2.7667  -20.8250    0.0000 C   0  0  0  0  0  0  0  0  0  0  0  0
    2.7667  -21.6500    0.0000 C   0  0  0  0  0  0  0  0  0  0  0  0
    3.4787  -22.0583    0.0000 N   0  0  0  0  0  0  0  0  0  0  0  0
    3.4787  -20.4083    0.0000 C   0  0  0  0  0  0  0  0  0  0  0  0
    4.1907  -20.8250    0.0000 C   0  0  0  0  0  0  0  0  0  0  0  0
    4.1872  -21.6500    0.0000 C   0  0  0  0  0  0  0  0  0  0  0  0
    4.8960  -22.0632    0.0000 C   0  0  0  0  0  0  0  0  0  0  0  0
    5.6128  -21.6560    0.0000 C   0  0  0  0  0  0  0  0  0  0  0  0
    5.6163  -20.8311    0.0000 N   0  0  0  0  0  0  0  0  0  0  0  0
    4.9030  -20.4132    0.0000 C   0  0  0  0  0  0  0  0  0  0  0  0
    6.3249  -22.0726    0.0000 C   0  0  0  0  0  0  0  0  0  0  0  0
    6.3176  -22.8969    0.0000 C   0  0  0  0  0  0  0  0  0  0  0  0
    7.0289  -23.3133    0.0000 C   0  0  0  0  0  0  0  0  0  0  0  0
    7.7466  -22.9048    0.0000 C   0  0  0  0  0  0  0  0  0  0  0  0
    7.7487  -22.0755    0.0000 C   0  0  0  0  0  0  0  0  0  0  0  0
    7.0368  -21.6628    0.0000 C   0  0  0  0  0  0  0  0  0  0  0  0
    8.4593  -23.3204    0.0000 N   0  0  0  0  0  0  0  0  0  0  0  0
    8.4558  -24.1454    0.0000 C   0  0  0  0  0  0  0  0  0  0  0  0
    9.1756  -22.9109    0.0000 C   0  0  0  0  0  0  0  0  0  0  0  0
    4.9053  -19.5883    0.0000 N   0  0  0  0  0  0  0  0  0  0  0  0
    4.1920  -19.1737    0.0000 C   0  0  0  0  0  0  0  0  0  0  0  0
    3.4750  -18.7583    0.0000 C   0  0  0  0  0  0  0  0  0  0  0  0
    4.6061  -18.4601    0.0000 C   0  0  0  0  0  0  0  0  0  0  0  0
    3.7812  -19.8891    0.0000 C   0  0  0  0  0  0  0  0  0  0  0  0
    3.4762  -17.9333    0.0000 N   0  0  0  0  0  0  0  0  0  0  0  0
 11 12  2  0  0  0  0 
  1  2  2  0  0  0  0 
 12 13  1  0  0  0  0 
  1  4  1  0  0  0  0 
 13 14  2  0  0  0  0 
  2  3  1  0  0  0  0 
 14 15  1  0  0  0  0 
  3  6  2  0  0  0  0 
 15 16  2  0  0  0  0 
 16 11  1  0  0  0  0 
  5  4  2  0  0  0  0 
 14 17  1  0  0  0  0 
  5 10  1  0  0  0  0 
 17 18  1  0  0  0  0 
  6  7  1  0  0  0  0 
 17 19  1  0  0  0  0 
  7  8  2  0  0  0  0 
 10 20  1  0  0  0  0 
  8  9  1  0  0  0  0 
 20 21  1  0  0  0  0 
  9 10  2  0  0  0  0 
 21 22  1  0  0  0  0 
  5  6  1  0  0  0  0 
 21 23  1  0  0  0  0 
  8 11  1  0  0  0  0 
 21 24  1  0  0  0  0 
 22 25  1  0  0  0  0 
M  END

>  <pIC50>
6.50863830617

$$$$

  CDK    9/16/09,10:7

 19 21  0  0  0  0  0  0  0  0999 V2000
   11.9027  -20.5791    0.0000 C   0  0  0  0  0  0  0  0  0  0  0  0
   11.9016  -21.4065    0.0000 C   0  0  0  0  0  0  0  0  0  0  0  0
   12.6164  -21.8194    0.0000 C   0  0  0  0  0  0  0  0  0  0  0  0
   13.3328  -21.4060    0.0000 N   0  0  0  0  0  0  0  0  0  0  0  0
   13.3300  -20.5755    0.0000 C   0  0  0  0  0  0  0  0  0  0  0  0
   12.6146  -20.1664    0.0000 N   0  0  0  0  0  0  0  0  0  0  0  0
   14.0429  -20.1603    0.0000 N   0  0  0  0  0  0  0  0  0  0  0  0
   14.7589  -20.5701    0.0000 C   0  0  0  0  0  0  0  0  0  0  0  0
   14.7587  -21.3928    0.0000 C   0  0  0  0  0  0  0  0  0  0  0  0
   15.4738  -21.8025    0.0000 C   0  0  0  0  0  0  0  0  0  0  0  0
   16.1877  -21.3872    0.0000 C   0  0  0  0  0  0  0  0  0  0  0  0
   16.1820  -20.5580    0.0000 C   0  0  0  0  0  0  0  0  0  0  0  0
   15.4662  -20.1520    0.0000 C   0  0  0  0  0  0  0  0  0  0  0  0
   16.9043  -21.7961    0.0000 O   0  0  0  0  0  0  0  0  0  0  0  0
   11.1882  -20.1668    0.0000 C   0  0  0  0  0  0  0  0  0  0  0  0
   11.1017  -19.3471    0.0000 N   0  0  0  0  0  0  0  0  0  0  0  0
   10.2947  -19.1758    0.0000 C   0  0  0  0  0  0  0  0  0  0  0  0
    9.8823  -19.8904    0.0000 C   0  0  0  0  0  0  0  0  0  0  0  0
   10.4346  -20.5033    0.0000 S   0  0  0  0  0  0  0  0  0  0  0  0
  4  5  1  0  0  0  0 
  9 10  1  0  0  0  0 
  2  3  1  0  0  0  0 
 10 11  2  0  0  0  0 
  5  6  2  0  0  0  0 
 11 12  1  0  0  0  0 
  6  1  1  0  0  0  0 
 12 13  2  0  0  0  0 
 13  8  1  0  0  0  0 
  1  2  2  0  0  0  0 
 11 14  1  0  0  0  0 
  5  7  1  0  0  0  0 
  1 15  1  0  0  0  0 
 15 16  2  0  0  0  0 
  3  4  2  0  0  0  0 
  7  8  1  0  0  0  0 
  8  9  2  0  0  0  0 
 16 17  1  0  0  0  0 
 17 18  2  0  0  0  0 
 18 19  1  0  0  0  0 
 19 15  1  0  0  0  0 
M  END

>  <pIC50>
6.30102999566

$$$$

  CDK    9/16/09,10:7

 31 34  0  0  0  0  0  0  0  0999 V2000
   -3.8139   -0.4375    0.0000 C   0  0  0  0  0  0  0  0  0  0  0  0
   -3.8151   -1.2648    0.0000 C   0  0  0  0  0  0  0  0  0  0  0  0
   -2.3867   -0.4338    0.0000 C   0  0  0  0  0  0  0  0  0  0  0  0
   -3.1021   -0.0247    0.0000 C   0  0  0  0  0  0  0  0  0  0  0  0
   -2.3838   -1.2644    0.0000 C   0  0  0  0  0  0  0  0  0  0  0  0
   -3.1013   -1.6764    0.0000 C   0  0  0  0  0  0  0  0  0  0  0  0
   -2.9312   -2.4861    0.0000 N   0  0  0  0  0  0  0  0  0  0  0  0
   -2.1085   -2.5746    0.0000 C   0  0  0  0  0  0  0  0  0  0  0  0
   -1.7703   -1.8194    0.0000 C   0  0  0  0  0  0  0  0  0  0  0  0
   -1.6976   -3.2900    0.0000 O   0  0  0  0  0  0  0  0  0  0  0  0
   -0.9629   -1.6498    0.0000 C   0  0  0  0  0  0  0  0  0  0  0  0
   -0.4123   -2.2641    0.0000 C   0  0  0  0  0  0  0  0  0  0  0  0
   -0.5884   -3.0698    0.0000 C   0  0  0  0  0  0  0  0  0  0  0  0
    0.1252   -3.4840    0.0000 N   0  0  0  0  0  0  0  0  0  0  0  0
    0.4056   -2.1789    0.0000 C   0  0  0  0  0  0  0  0  0  0  0  0
    0.7375   -2.9342    0.0000 C   0  0  0  0  0  0  0  0  0  0  0  0
    1.5530   -3.0240    0.0000 C   0  0  0  0  0  0  0  0  0  0  0  0
    2.0427   -2.3608    0.0000 C   0  0  0  0  0  0  0  0  0  0  0  0
    1.7108   -1.6054    0.0000 C   0  0  0  0  0  0  0  0  0  0  0  0
    0.8893   -1.5134    0.0000 C   0  0  0  0  0  0  0  0  0  0  0  0
    2.1997   -0.9409    0.0000 O   0  0  0  0  0  0  0  0  0  0  0  0
    3.0196   -1.0319    0.0000 C   0  0  0  0  0  0  0  0  0  0  0  0
   -3.1045    0.8003    0.0000 S   0  0  0  0  0  0  0  0  0  0  0  0
   -3.1125    1.6292    0.0000 N   0  0  0  0  0  0  0  0  0  0  0  0
   -2.2796    0.8055    0.0000 O   0  0  0  0  0  0  0  0  0  0  0  0
   -3.9295    0.7912    0.0000 O   0  0  0  0  0  0  0  0  0  0  0  0
   -2.4020    2.0485    0.0000 C   0  0  0  0  0  0  0  0  0  0  0  0
   -2.4099    2.8735    0.0000 C   0  0  0  0  0  0  0  0  0  0  0  0
   -1.6995    3.2928    0.0000 C   0  0  0  0  0  0  0  0  0  0  0  0
   -3.1283    3.2791    0.0000 C   0  0  0  0  0  0  0  0  0  0  0  0
    0.2099   -4.3046    0.0000 C   0  0  0  0  0  0  0  0  0  0  0  0
 15 12  1  0  0  0  0 
 15 16  2  0  0  0  0 
  1  2  2  0  0  0  0 
  3  4  2  0  0  0  0 
  6  7  1  0  0  0  0 
  7  8  1  0  0  0  0 
  8  9  1  0  0  0  0 
  9  5  1  0  0  0  0 
 15 20  1  0  0  0  0 
 16 17  1  0  0  0  0 
 17 18  2  0  0  0  0 
 18 19  1  0  0  0  0 
 19 20  2  0  0  0  0 
  4  1  1  0  0  0  0 
 19 21  1  0  0  0  0 
  8 10  2  0  0  0  0 
 21 22  1  0  0  0  0 
  5  6  2  0  0  0  0 
  4 23  1  0  0  0  0 
  9 11  2  0  0  0  0 
 23 24  1  0  0  0  0 
  2  6  1  0  0  0  0 
 23 25  2  0  0  0  0 
 11 12  1  0  0  0  0 
 23 26  2  0  0  0  0 
 12 13  2  0  0  0  0 
 24 27  1  0  0  0  0 
 27 28  1  0  0  0  0 
  5  3  1  0  0  0  0 
 28 29  1  0  0  0  0 
 13 14  1  0  0  0  0 
 28 30  1  0  0  0  0 
 14 16  1  0  0  0  0 
 14 31  1  0  0  0  0 
M  END

>  <pIC50>
6.0268721464

$$$$

  CDK    9/16/09,10:7

 22 25  0  0  0  0  0  0  0  0999 V2000
    3.5250    0.8375    0.0000 C   0  0  0  0  0  0  0  0  0  0  0  0
    3.5250    0.0125    0.0000 C   0  0  0  0  0  0  0  0  0  0  0  0
    4.2370   -0.3958    0.0000 C   0  0  0  0  0  0  0  0  0  0  0  0
    4.2370    1.2542    0.0000 C   0  0  0  0  0  0  0  0  0  0  0  0
    4.9490    0.8375    0.0000 C   0  0  0  0  0  0  0  0  0  0  0  0
    4.9455    0.0125    0.0000 C   0  0  0  0  0  0  0  0  0  0  0  0
    5.6543   -0.4007    0.0000 C   0  0  0  0  0  0  0  0  0  0  0  0
    6.3711    0.0065    0.0000 C   0  0  0  0  0  0  0  0  0  0  0  0
    6.3746    0.8314    0.0000 C   0  0  0  0  0  0  0  0  0  0  0  0
    5.6613    1.2493    0.0000 C   0  0  0  0  0  0  0  0  0  0  0  0
    7.0912    1.2402    0.0000 N   0  0  0  0  0  0  0  0  0  0  0  0
    7.8035    0.8239    0.0000 C   0  0  0  0  0  0  0  0  0  0  0  0
    7.7970   -0.0011    0.0000 N   0  0  0  0  0  0  0  0  0  0  0  0
    8.5085   -0.4172    0.0000 C   0  0  0  0  0  0  0  0  0  0  0  0
    9.2261   -0.0084    0.0000 C   0  0  0  0  0  0  0  0  0  0  0  0
    9.2278    0.8208    0.0000 C   0  0  0  0  0  0  0  0  0  0  0  0
    8.5158    1.2333    0.0000 N   0  0  0  0  0  0  0  0  0  0  0  0
    8.5048   -1.2365    0.0000 C   0  0  0  0  0  0  0  0  0  0  0  0
    7.8346   -1.7176    0.0000 N   0  0  0  0  0  0  0  0  0  0  0  0
    8.0851   -2.5037    0.0000 C   0  0  0  0  0  0  0  0  0  0  0  0
    8.9101   -2.5084    0.0000 C   0  0  0  0  0  0  0  0  0  0  0  0
    9.1694   -1.7253    0.0000 S   0  0  0  0  0  0  0  0  0  0  0  0
  5  6  2  0  0  0  0 
  9 11  1  0  0  0  0 
 11 12  1  0  0  0  0 
  1  2  1  0  0  0  0 
 12 13  2  0  0  0  0 
  1  4  2  0  0  0  0 
 13 14  1  0  0  0  0 
  2  3  2  0  0  0  0 
 14 15  2  0  0  0  0 
  3  6  1  0  0  0  0 
 15 16  1  0  0  0  0 
  5  4  1  0  0  0  0 
 16 17  2  0  0  0  0 
 17 12  1  0  0  0  0 
 18 19  2  0  0  0  0 
  5 10  1  0  0  0  0 
  6  7  1  0  0  0  0 
  7  8  2  0  0  0  0 
  8  9  1  0  0  0  0 
  9 10  2  0  0  0  0 
 19 20  1  0  0  0  0 
 20 21  2  0  0  0  0 
 21 22  1  0  0  0  0 
 22 18  1  0  0  0  0 
 14 18  1  0  0  0  0 
M  END

>  <pIC50>
5.69897000434

$$$$

  CDK    9/16/09,10:7

 22 23  0  0  0  0  0  0  0  0999 V2000
   12.0277   -0.1291    0.0000 C   0  0  0  0  0  0  0  0  0  0  0  0
   12.0266   -0.9565    0.0000 C   0  0  0  0  0  0  0  0  0  0  0  0
   12.7414   -1.3694    0.0000 C   0  0  0  0  0  0  0  0  0  0  0  0
   13.4578   -0.9560    0.0000 C   0  0  0  0  0  0  0  0  0  0  0  0
   13.4550   -0.1255    0.0000 C   0  0  0  0  0  0  0  0  0  0  0  0
   12.7396    0.2836    0.0000 C   0  0  0  0  0  0  0  0  0  0  0  0
   12.7371    1.1086    0.0000 C   0  0  0  0  0  0  0  0  0  0  0  0
   13.4504    1.5233    0.0000 O   0  0  0  0  0  0  0  0  0  0  0  0
   12.0214    1.5190    0.0000 O   0  0  0  0  0  0  0  0  0  0  0  0
   14.1661    1.1129    0.0000 C   0  0  0  0  0  0  0  0  0  0  0  0
   14.1663    0.2906    0.0000 C   0  0  0  0  0  0  0  0  0  0  0  0
   14.8812   -0.1197    0.0000 C   0  0  0  0  0  0  0  0  0  0  0  0
   15.5954    0.2950    0.0000 C   0  0  0  0  0  0  0  0  0  0  0  0
   15.5903    1.1242    0.0000 C   0  0  0  0  0  0  0  0  0  0  0  0
   14.8749    1.5308    0.0000 C   0  0  0  0  0  0  0  0  0  0  0  0
   14.8683    2.3558    0.0000 O   0  0  0  0  0  0  0  0  0  0  0  0
   15.5794    2.7740    0.0000 C   0  0  0  0  0  0  0  0  0  0  0  0
   16.3117   -0.1144    0.0000 C   0  0  0  0  0  0  0  0  0  0  0  0
   16.3152   -0.9394    0.0000 C   0  0  0  0  0  0  0  0  0  0  0  0
   17.0315   -1.3488    0.0000 N   0  0  0  0  0  0  0  0  0  0  0  0
   17.7480   -0.9348    0.0000 O   0  0  0  0  0  0  0  0  0  0  0  0
   17.0389   -2.1754    0.0000 O   0  0  0  0  0  0  0  0  0  0  0  0
 10 11  2  0  0  0  0 
  5  6  2  0  0  0  0 
 11 12  1  0  0  0  0 
  6  1  1  0  0  0  0 
 12 13  2  0  0  0  0 
  1  2  2  0  0  0  0 
 13 14  1  0  0  0  0 
  6  7  1  0  0  0  0 
 14 15  2  0  0  0  0 
 15 10  1  0  0  0  0 
  3  4  2  0  0  0  0 
 15 16  1  0  0  0  0 
  7  8  1  0  0  0  0 
 16 17  1  0  0  0  0 
 13 18  1  0  0  0  0 
  7  9  2  0  0  0  0 
 18 19  2  0  0  0  0 
  4  5  1  0  0  0  0 
 19 20  1  0  0  0  0 
  8 10  1  0  0  0  0 
  2  3  1  0  0  0  0 
 20 21  2  0  0  0  0 
 20 22  1  0  0  0  0 
M  CHG  1  20   1
M  CHG  1  22  -1
M  END

>  <pIC50>
5.42021640338

$$$$

  CDK    9/16/09,10:7

 20 21  0  0  0  0  0  0  0  0999 V2000
   -3.1223   -6.2500    0.0000 C   0  0  0  0  0  0  0  0  0  0  0  0
   -3.1234   -7.0773    0.0000 C   0  0  0  0  0  0  0  0  0  0  0  0
   -2.4086   -7.4902    0.0000 C   0  0  0  0  0  0  0  0  0  0  0  0
   -1.6922   -7.0769    0.0000 N   0  0  0  0  0  0  0  0  0  0  0  0
   -1.6950   -6.2463    0.0000 C   0  0  0  0  0  0  0  0  0  0  0  0
   -2.4104   -5.8372    0.0000 N   0  0  0  0  0  0  0  0  0  0  0  0
   -2.4088   -8.3152    0.0000 N   0  0  0  0  0  0  0  0  0  0  0  0
   -3.8382   -7.4893    0.0000 C   0  0  0  0  0  0  0  0  0  0  0  0
   -4.5524   -7.0762    0.0000 O   0  0  0  0  0  0  0  0  0  0  0  0
   -3.8389   -8.3143    0.0000 N   0  0  0  0  0  0  0  0  0  0  0  0
   -1.6944   -8.7279    0.0000 C   0  0  0  0  0  0  0  0  0  0  0  0
   -1.6988   -9.5511    0.0000 C   0  0  0  0  0  0  0  0  0  0  0  0
   -0.9853   -9.9637    0.0000 C   0  0  0  0  0  0  0  0  0  0  0  0
   -0.2697   -9.5513    0.0000 C   0  0  0  0  0  0  0  0  0  0  0  0
   -0.2722   -8.7220    0.0000 C   0  0  0  0  0  0  0  0  0  0  0  0
   -0.9863   -8.3132    0.0000 C   0  0  0  0  0  0  0  0  0  0  0  0
    0.4409   -8.3072    0.0000 C   0  0  0  0  0  0  0  0  0  0  0  0
    1.1500   -7.8875    0.0000 F   0  0  0  0  0  0  0  0  0  0  0  0
    0.8585   -9.0187    0.0000 F   0  0  0  0  0  0  0  0  0  0  0  0
    0.0243   -7.5951    0.0000 F   0  0  0  0  0  0  0  0  0  0  0  0
  8 10  1  0  0  0  0 
  2  3  1  0  0  0  0 
  7 11  1  0  0  0  0 
  5  6  2  0  0  0  0 
 11 12  2  0  0  0  0 
  6  1  1  0  0  0  0 
 12 13  1  0  0  0  0 
  1  2  2  0  0  0  0 
 13 14  2  0  0  0  0 
  3  7  1  0  0  0  0 
 14 15  1  0  0  0  0 
  3  4  2  0  0  0  0 
 15 16  2  0  0  0  0 
 16 11  1  0  0  0  0 
  2  8  1  0  0  0  0 
 15 17  1  0  0  0  0 
 17 18  1  0  0  0  0 
  8  9  2  0  0  0  0 
 17 19  1  0  0  0  0 
  4  5  1  0  0  0  0 
 17 20  1  0  0  0  0 
M  END

>  <pIC50>
5.30102999566

$$$$

  CDK    9/16/09,10:7

 23 25  0  0  0  0  0  0  0  0999 V2000
    4.7792   -7.1167    0.0000 N   0  0  0  0  0  0  0  0  0  0  0  0
    4.7792   -7.9417    0.0000 N   0  0  0  0  0  0  0  0  0  0  0  0
    5.4912   -8.3500    0.0000 C   0  0  0  0  0  0  0  0  0  0  0  0
    5.4912   -6.7000    0.0000 C   0  0  0  0  0  0  0  0  0  0  0  0
    6.2032   -7.1167    0.0000 C   0  0  0  0  0  0  0  0  0  0  0  0
    6.1997   -7.9417    0.0000 C   0  0  0  0  0  0  0  0  0  0  0  0
    6.9085   -8.3549    0.0000 C   0  0  0  0  0  0  0  0  0  0  0  0
    7.6253   -7.9477    0.0000 C   0  0  0  0  0  0  0  0  0  0  0  0
    7.6288   -7.1227    0.0000 C   0  0  0  0  0  0  0  0  0  0  0  0
    6.9155   -6.7049    0.0000 C   0  0  0  0  0  0  0  0  0  0  0  0
    4.0653   -8.3552    0.0000 C   0  0  0  0  0  0  0  0  0  0  0  0
    3.3502   -7.9437    0.0000 C   0  0  0  0  0  0  0  0  0  0  0  0
    2.6333   -7.5292    0.0000 F   0  0  0  0  0  0  0  0  0  0  0  0
    2.9380   -8.6584    0.0000 F   0  0  0  0  0  0  0  0  0  0  0  0
    3.7652   -7.2307    0.0000 F   0  0  0  0  0  0  0  0  0  0  0  0
    5.4921   -9.1750    0.0000 O   0  0  0  0  0  0  0  0  0  0  0  0
    5.4912   -5.8750    0.0000 N   0  0  0  0  0  0  0  0  0  0  0  0
    4.7767   -5.4625    0.0000 C   0  0  0  0  0  0  0  0  0  0  0  0
    4.6861   -4.6444    0.0000 N   0  0  0  0  0  0  0  0  0  0  0  0
    3.8791   -4.4729    0.0000 N   0  0  0  0  0  0  0  0  0  0  0  0
    3.4666   -5.1874    0.0000 C   0  0  0  0  0  0  0  0  0  0  0  0
    4.0187   -5.8004    0.0000 C   0  0  0  0  0  0  0  0  0  0  0  0
    2.6461   -5.2737    0.0000 C   0  0  0  0  0  0  0  0  0  0  0  0
  2 11  1  0  0  0  0 
 11 12  1  0  0  0  0 
  1  2  1  0  0  0  0 
 12 13  1  0  0  0  0 
  1  4  2  0  0  0  0 
 12 14  1  0  0  0  0 
  2  3  1  0  0  0  0 
 12 15  1  0  0  0  0 
  3  6  1  0  0  0  0 
  3 16  2  0  0  0  0 
  5  4  1  0  0  0  0 
  4 17  1  0  0  0  0 
  5 10  1  0  0  0  0 
 17 18  1  0  0  0  0 
 18 19  2  0  0  0  0 
  6  7  1  0  0  0  0 
  7  8  2  0  0  0  0 
  8  9  1  0  0  0  0 
  9 10  2  0  0  0  0 
 19 20  1  0  0  0  0 
 20 21  1  0  0  0  0 
 21 22  2  0  0  0  0 
 22 18  1  0  0  0  0 
  5  6  2  0  0  0  0 
 21 23  1  0  0  0  0 
M  END

>  <pIC50>
5.11350927483

$$$$

  CDK    9/16/09,10:7

 27 29  0  0  0  0  0  0  0  0999 V2000
    9.9027   -6.6208    0.0000 C   0  0  0  0  0  0  0  0  0  0  0  0
    9.9016   -7.4482    0.0000 C   0  0  0  0  0  0  0  0  0  0  0  0
   10.6164   -7.8610    0.0000 N   0  0  0  0  0  0  0  0  0  0  0  0
   10.6146   -6.2080    0.0000 C   0  0  0  0  0  0  0  0  0  0  0  0
   11.3300   -6.6172    0.0000 C   0  0  0  0  0  0  0  0  0  0  0  0
   11.3307   -7.4440    0.0000 C   0  0  0  0  0  0  0  0  0  0  0  0
   12.0460   -7.8550    0.0000 C   0  0  0  0  0  0  0  0  0  0  0  0
   12.7611   -7.4402    0.0000 C   0  0  0  0  0  0  0  0  0  0  0  0
   12.7563   -6.6102    0.0000 N   0  0  0  0  0  0  0  0  0  0  0  0
   12.0404   -6.2030    0.0000 C   0  0  0  0  0  0  0  0  0  0  0  0
   13.4771   -7.8499    0.0000 C   0  0  0  0  0  0  0  0  0  0  0  0
   13.4754   -8.6719    0.0000 C   0  0  0  0  0  0  0  0  0  0  0  0
   14.1906   -9.0816    0.0000 C   0  0  0  0  0  0  0  0  0  0  0  0
   14.9045   -8.6662    0.0000 C   0  0  0  0  0  0  0  0  0  0  0  0
   14.8986   -7.8370    0.0000 C   0  0  0  0  0  0  0  0  0  0  0  0
   14.1828   -7.4311    0.0000 C   0  0  0  0  0  0  0  0  0  0  0  0
   15.6211   -9.0750    0.0000 N   0  0  0  0  0  0  0  0  0  0  0  0
   15.6254   -9.9000    0.0000 C   0  0  0  0  0  0  0  0  0  0  0  0
   16.3334   -8.6588    0.0000 C   0  0  0  0  0  0  0  0  0  0  0  0
   10.6121   -5.3830    0.0000 N   0  0  0  0  0  0  0  0  0  0  0  0
   11.3254   -4.9684    0.0000 C   0  0  0  0  0  0  0  0  0  0  0  0
    9.8964   -4.9727    0.0000 C   0  0  0  0  0  0  0  0  0  0  0  0
   12.0411   -5.3788    0.0000 C   0  0  0  0  0  0  0  0  0  0  0  0
   12.7543   -4.9641    0.0000 C   0  0  0  0  0  0  0  0  0  0  0  0
   13.4700   -5.3745    0.0000 N   0  0  0  0  0  0  0  0  0  0  0  0
   14.1832   -4.9599    0.0000 C   0  0  0  0  0  0  0  0  0  0  0  0
   13.4725   -6.1995    0.0000 C   0  0  0  0  0  0  0  0  0  0  0  0
 12 13  1  0  0  0  0 
  3  6  2  0  0  0  0 
 13 14  2  0  0  0  0 
  6  7  1  0  0  0  0 
 14 15  1  0  0  0  0 
  1  2  2  0  0  0  0 
 15 16  2  0  0  0  0 
 16 11  1  0  0  0  0 
  7  8  2  0  0  0  0 
 14 17  1  0  0  0  0 
  5  4  2  0  0  0  0 
 17 18  1  0  0  0  0 
  8  9  1  0  0  0  0 
 17 19  1  0  0  0  0 
  4  1  1  0  0  0  0 
  4 20  1  0  0  0  0 
  9 10  2  0  0  0  0 
 20 21  1  0  0  0  0 
 10  5  1  0  0  0  0 
 20 22  1  0  0  0  0 
 21 23  1  0  0  0  0 
  8 11  1  0  0  0  0 
 23 24  1  0  0  0  0 
  2  3  1  0  0  0  0 
 24 25  1  0  0  0  0 
 11 12  2  0  0  0  0 
 25 26  1  0  0  0  0 
  5  6  1  0  0  0  0 
 25 27  1  0  0  0  0 
M  END

>  <pIC50>
5.06550154876

$$$$

  CDK    9/16/09,10:7

 19 21  0  0  0  0  0  0  0  0999 V2000
   -3.3458  -13.3000    0.0000 C   0  0  0  0  0  0  0  0  0  0  0  0
   -1.9218  -14.1250    0.0000 C   0  0  0  0  0  0  0  0  0  0  0  0
   -1.9218  -13.3000    0.0000 C   0  0  0  0  0  0  0  0  0  0  0  0
   -2.6338  -12.8833    0.0000 N   0  0  0  0  0  0  0  0  0  0  0  0
   -2.6338  -14.5333    0.0000 C   0  0  0  0  0  0  0  0  0  0  0  0
   -3.3458  -14.1250    0.0000 C   0  0  0  0  0  0  0  0  0  0  0  0
   -4.0515  -14.5352    0.0000 C   0  0  0  0  0  0  0  0  0  0  0  0
   -4.0514  -15.3554    0.0000 C   0  0  0  0  0  0  0  0  0  0  0  0
   -3.3394  -15.7637    0.0000 C   0  0  0  0  0  0  0  0  0  0  0  0
   -2.6275  -15.3518    0.0000 N   0  0  0  0  0  0  0  0  0  0  0  0
   -1.2070  -12.8866    0.0000 C   0  0  0  0  0  0  0  0  0  0  0  0
   -0.4939  -13.3034    0.0000 C   0  0  0  0  0  0  0  0  0  0  0  0
    0.2196  -12.8965    0.0000 C   0  0  0  0  0  0  0  0  0  0  0  0
    0.2263  -12.0711    0.0000 C   0  0  0  0  0  0  0  0  0  0  0  0
   -0.4868  -11.6544    0.0000 C   0  0  0  0  0  0  0  0  0  0  0  0
   -1.2066  -12.0629    0.0000 C   0  0  0  0  0  0  0  0  0  0  0  0
   -4.0615  -12.8896    0.0000 N   0  0  0  0  0  0  0  0  0  0  0  0
    0.9435  -11.6635    0.0000 O   0  0  0  0  0  0  0  0  0  0  0  0
    0.9490  -10.8385    0.0000 C   0  0  0  0  0  0  0  0  0  0  0  0
  7  8  1  0  0  0  0 
  8  9  2  0  0  0  0 
  9 10  1  0  0  0  0 
 11 12  2  0  0  0  0 
  5  6  1  0  0  0  0 
  1  6  1  0  0  0  0 
  1  4  2  0  0  0  0 
  5  2  1  0  0  0  0 
  2  3  2  0  0  0  0 
 11 16  1  0  0  0  0 
 12 13  1  0  0  0  0 
 13 14  2  0  0  0  0 
 14 15  1  0  0  0  0 
 15 16  2  0  0  0  0 
  3 11  1  0  0  0  0 
  3  4  1  0  0  0  0 
  1 17  1  0  0  0  0 
  5 10  2  0  0  0  0 
 14 18  1  0  0  0  0 
  6  7  2  0  0  0  0 
 18 19  1  0  0  0  0 
M  END

>  <pIC50>
4.76955107862

$$$$

  CDK    9/16/09,10:7

 24 26  0  0  0  0  0  0  0  0999 V2000
    3.9625  -13.8333    0.0000 N   0  0  0  0  0  0  0  0  0  0  0  0
    3.9625  -14.6583    0.0000 N   0  0  0  0  0  0  0  0  0  0  0  0
    4.6745  -15.0667    0.0000 C   0  0  0  0  0  0  0  0  0  0  0  0
    4.6745  -13.4167    0.0000 C   0  0  0  0  0  0  0  0  0  0  0  0
    5.3865  -13.8333    0.0000 C   0  0  0  0  0  0  0  0  0  0  0  0
    5.3830  -14.6583    0.0000 C   0  0  0  0  0  0  0  0  0  0  0  0
    6.0918  -15.0716    0.0000 C   0  0  0  0  0  0  0  0  0  0  0  0
    6.8086  -14.6644    0.0000 C   0  0  0  0  0  0  0  0  0  0  0  0
    6.8121  -13.8394    0.0000 C   0  0  0  0  0  0  0  0  0  0  0  0
    6.0988  -13.4216    0.0000 C   0  0  0  0  0  0  0  0  0  0  0  0
    4.6754  -15.8917    0.0000 O   0  0  0  0  0  0  0  0  0  0  0  0
    7.5287  -13.4307    0.0000 N   0  0  0  0  0  0  0  0  0  0  0  0
    8.2410  -13.8469    0.0000 C   0  0  0  0  0  0  0  0  0  0  0  0
    7.5331  -12.6057    0.0000 C   0  0  0  0  0  0  0  0  0  0  0  0
    4.6745  -12.5917    0.0000 N   0  0  0  0  0  0  0  0  0  0  0  0
    3.2486  -15.0719    0.0000 C   0  0  0  0  0  0  0  0  0  0  0  0
    2.5336  -14.6604    0.0000 C   0  0  0  0  0  0  0  0  0  0  0  0
    3.2498  -15.8969    0.0000 C   0  0  0  0  0  0  0  0  0  0  0  0
    3.9600  -12.1792    0.0000 C   0  0  0  0  0  0  0  0  0  0  0  0
    3.8695  -11.3611    0.0000 N   0  0  0  0  0  0  0  0  0  0  0  0
    3.0625  -11.1896    0.0000 N   0  0  0  0  0  0  0  0  0  0  0  0
    2.6500  -11.9041    0.0000 C   0  0  0  0  0  0  0  0  0  0  0  0
    3.2021  -12.5171    0.0000 C   0  0  0  0  0  0  0  0  0  0  0  0
    1.8295  -11.9904    0.0000 C   0  0  0  0  0  0  0  0  0  0  0  0
  9 12  1  0  0  0  0 
  1  2  1  0  0  0  0 
 12 13  1  0  0  0  0 
  1  4  2  0  0  0  0 
 12 14  1  0  0  0  0 
  2  3  1  0  0  0  0 
  4 15  1  0  0  0  0 
  3  6  1  0  0  0  0 
  2 16  1  0  0  0  0 
  5  4  1  0  0  0  0 
 16 17  1  0  0  0  0 
  5 10  1  0  0  0  0 
 16 18  1  0  0  0  0 
  6  7  1  0  0  0  0 
 15 19  1  0  0  0  0 
 19 20  2  0  0  0  0 
  7  8  2  0  0  0  0 
  8  9  1  0  0  0  0 
  9 10  2  0  0  0  0 
  5  6  2  0  0  0  0 
 20 21  1  0  0  0  0 
 21 22  1  0  0  0  0 
 22 23  2  0  0  0  0 
 23 19  1  0  0  0  0 
  3 11  2  0  0  0  0 
 22 24  1  0  0  0  0 
M  END

>  <pIC50>
4.43179827593

$$$$

  CDK    9/16/09,9:59

 15 15  0  0  0  0  0  0  0  0999 V2000
   -1.1889   -0.3083    0.0000 C   0  0  0  0  0  0  0  0  0  0  0  0
   -1.1901   -1.1357    0.0000 C   0  0  0  0  0  0  0  0  0  0  0  0
   -0.4753   -1.5485    0.0000 C   0  0  0  0  0  0  0  0  0  0  0  0
    0.2412   -1.1352    0.0000 C   0  0  0  0  0  0  0  0  0  0  0  0
    0.2383   -0.3047    0.0000 C   0  0  0  0  0  0  0  0  0  0  0  0
   -0.4771    0.1045    0.0000 C   0  0  0  0  0  0  0  0  0  0  0  0
   -1.9035    0.1040    0.0000 O   0  0  0  0  0  0  0  0  0  0  0  0
   -1.9049   -1.5476    0.0000 O   0  0  0  0  0  0  0  0  0  0  0  0
    0.9512    0.1105    0.0000 C   0  0  0  0  0  0  0  0  0  0  0  0
    1.6672   -0.2993    0.0000 C   0  0  0  0  0  0  0  0  0  0  0  0
    2.3802    0.1159    0.0000 C   0  0  0  0  0  0  0  0  0  0  0  0
    1.6704   -1.1243    0.0000 C   0  0  0  0  0  0  0  0  0  0  0  0
    3.0962   -0.2939    0.0000 N   0  0  0  0  0  0  0  0  0  0  0  0
    2.3770    0.9409    0.0000 S   0  0  0  0  0  0  0  0  0  0  0  0
    1.6625   -1.9458    0.0000 N   0  0  0  0  0  0  0  0  0  0  0  0
  3  4  2  0  0  0  0 
  2  8  1  0  0  0  0 
  5  9  1  0  0  0  0 
  4  5  1  0  0  0  0 
  9 10  2  0  0  0  0 
  2  3  1  0  0  0  0 
 10 11  1  0  0  0  0 
  5  6  2  0  0  0  0 
 10 12  1  0  0  0  0 
  6  1  1  0  0  0  0 
 11 13  1  0  0  0  0 
  1  2  2  0  0  0  0 
 11 14  2  0  0  0  0 
  1  7  1  0  0  0  0 
 12 15  3  0  0  0  0 
M  END

>  <pIC50>
4.42021640338

$$$$

  Mrv0541 04051115152D          

 20 22  0  0  0  0            999 V2000
   -1.6957   -1.4257    0.0000 C   0  0  0  0  0  0  0  0  0  0  0  0
   -2.4102   -1.0132    0.0000 C   0  0  0  0  0  0  0  0  0  0  0  0
   -3.1247   -1.4257    0.0000 O   0  0  0  0  0  0  0  0  0  0  0  0
   -2.4102   -0.1882    0.0000 C   0  0  0  0  0  0  0  0  0  0  0  0
   -1.6957    0.2243    0.0000 C   0  0  0  0  0  0  0  0  0  0  0  0
   -1.6957    1.0493    0.0000 O   0  0  0  0  0  0  0  0  0  0  0  0
   -0.9813   -0.1882    0.0000 C   0  0  0  0  0  0  0  0  0  0  0  0
   -0.2668    0.2243    0.0000 C   0  0  0  0  0  0  0  0  0  0  0  0
   -0.2668    1.0493    0.0000 O   0  0  0  0  0  0  0  0  0  0  0  0
    0.4477   -0.1882    0.0000 C   0  0  0  0  0  0  0  0  0  0  0  0
    0.4477   -1.0132    0.0000 C   0  0  0  0  0  0  0  0  0  0  0  0
   -0.2668   -1.4257    0.0000 O   0  0  0  0  0  0  0  0  0  0  0  0
   -0.9813   -1.0132    0.0000 C   0  0  0  0  0  0  0  0  0  0  0  0
    1.1621    0.2243    0.0000 C   0  0  0  0  0  0  0  0  0  0  0  0
    1.1621    1.0493    0.0000 C   0  0  0  0  0  0  0  0  0  0  0  0
    1.8766    1.4618    0.0000 C   0  0  0  0  0  0  0  0  0  0  0  0
    2.5911    1.0493    0.0000 C   0  0  0  0  0  0  0  0  0  0  0  0
    3.3055    1.4618    0.0000 O   0  0  0  0  0  0  0  0  0  0  0  0
    2.5911    0.2243    0.0000 C   0  0  0  0  0  0  0  0  0  0  0  0
    1.8766   -0.1882    0.0000 C   0  0  0  0  0  0  0  0  0  0  0  0
  1  2  2  0  0  0  0
  1 13  1  0  0  0  0
  2  3  1  0  0  0  0
  2  4  1  0  0  0  0
  4  5  2  0  0  0  0
  5  6  1  0  0  0  0
  5  7  1  0  0  0  0
  7  8  1  0  0  0  0
 13  7  2  0  0  0  0
  8  9  2  0  0  0  0
  8 10  1  0  0  0  0
 10 11  2  0  0  0  0
 14 10  1  0  0  0  0
 11 12  1  0  0  0  0
 13 12  1  0  0  0  0
 14 15  2  0  0  0  0
 14 20  1  0  0  0  0
 15 16  1  0  0  0  0
 16 17  2  0  0  0  0
 17 18  1  0  0  0  0
 17 19  1  0  0  0  0
 19 20  2  0  0  0  0
M  END

>  <pIC50>
4.40893539297

$$$$

  CDK    6/4/10,11:41

 14 14  0  0  0  0  0  0  0  0999 V2000
    2.1442   -3.8329    0.0000 C   0  0  0  0  0  0  0  0  0  0  0  0
    2.1430   -4.6602    0.0000 C   0  0  0  0  0  0  0  0  0  0  0  0
    2.8578   -5.0730    0.0000 C   0  0  0  0  0  0  0  0  0  0  0  0
    3.5741   -4.6597    0.0000 C   0  0  0  0  0  0  0  0  0  0  0  0
    3.5712   -3.8293    0.0000 C   0  0  0  0  0  0  0  0  0  0  0  0
    2.8560   -3.4202    0.0000 C   0  0  0  0  0  0  0  0  0  0  0  0
    4.2842   -3.4142    0.0000 C   0  0  0  0  0  0  0  0  0  0  0  0
    5.0001   -3.8239    0.0000 C   0  0  0  0  0  0  0  0  0  0  0  0
    5.7129   -3.4088    0.0000 N   0  0  0  0  0  0  0  0  0  0  0  0
    5.7106   -2.5827    0.0000 O   0  0  0  0  0  0  0  0  0  0  0  0
    6.4297   -3.8174    0.0000 O   0  0  0  0  0  0  0  0  0  0  0  0
    2.8576   -5.8979    0.0000 O   0  0  0  0  0  0  0  0  0  0  0  0
    1.4283   -5.0721    0.0000 O   0  0  0  0  0  0  0  0  0  0  0  0
    3.5718   -6.3106    0.0000 C   0  0  0  0  0  0  0  0  0  0  0  0
  5  7  1  0  0  0  0 
  3  4  2  0  0  0  0 
  7  8  2  0  0  0  0 
  8  9  1  0  0  0  0 
  4  5  1  0  0  0  0 
  2  3  1  0  0  0  0 
  9 10  2  0  0  0  0 
  9 11  1  0  0  0  0 
  5  6  2  0  0  0  0 
  3 12  1  0  0  0  0 
  6  1  1  0  0  0  0 
  2 13  1  0  0  0  0 
  1  2  2  0  0  0  0 
 12 14  1  0  0  0  0 
M  CHG  1   9   1
M  CHG  1  11  -1
M  END

>  <pIC50>
4.11918640772

$$$$

  CDK    9/16/09,10:7

 31 34  0  0  0  0  0  0  0  0999 V2000
    1.1013   -5.0345    0.0000 C   0  0  0  0  0  0  0  0  0  0  0  0
    0.3892   -4.6222    0.0000 O   0  0  0  0  0  0  0  0  0  0  0  0
    0.3866   -3.7963    0.0000 C   0  0  0  0  0  0  0  0  0  0  0  0
   -0.3256   -3.3840    0.0000 C   0  0  0  0  0  0  0  0  0  0  0  0
   -0.3240   -2.5582    0.0000 C   0  0  0  0  0  0  0  0  0  0  0  0
   -1.0362   -2.1459    0.0000 N   0  0  0  0  0  0  0  0  0  0  0  0
   -1.7500   -2.5595    0.0000 C   0  0  0  0  0  0  0  0  0  0  0  0
   -1.7516   -3.3813    0.0000 N   0  0  0  0  0  0  0  0  0  0  0  0
   -2.4655   -3.7948    0.0000 C   0  0  0  0  0  0  0  0  0  0  0  0
   -2.4672   -4.6165    0.0000 N   0  0  0  0  0  0  0  0  0  0  0  0
   -1.7549   -5.0330    0.0000 C   0  0  0  0  0  0  0  0  0  0  0  0
   -1.0411   -4.6194    0.0000 C   0  0  0  0  0  0  0  0  0  0  0  0
   -0.3247   -5.0317    0.0000 C   0  0  0  0  0  0  0  0  0  0  0  0
   -0.3264   -5.8576    0.0000 C   0  0  0  0  0  0  0  0  0  0  0  0
   -1.0443   -6.2670    0.0000 C   0  0  0  0  0  0  0  0  0  0  0  0
   -1.7566   -5.8547    0.0000 C   0  0  0  0  0  0  0  0  0  0  0  0
   -2.4704   -6.2684    0.0000 N   0  0  0  0  0  0  0  0  0  0  0  0
   -3.1818   -3.3784    0.0000 N   0  0  0  0  0  0  0  0  0  0  0  0
   -3.9639   -3.6330    0.0000 N   0  0  0  0  0  0  0  0  0  0  0  0
   -4.4496   -2.9650    0.0000 C   0  0  0  0  0  0  0  0  0  0  0  0
   -3.9612   -2.3031    0.0000 N   0  0  0  0  0  0  0  0  0  0  0  0
   -3.1803   -2.5566    0.0000 C   0  0  0  0  0  0  0  0  0  0  0  0
   -2.4664   -2.1431    0.0000 C   0  0  0  0  0  0  0  0  0  0  0  0
   -2.4648   -1.3213    0.0000 C   0  0  0  0  0  0  0  0  0  0  0  0
   -3.1770   -0.9049    0.0000 O   0  0  0  0  0  0  0  0  0  0  0  0
   -1.7509   -0.9077    0.0000 N   0  0  0  0  0  0  0  0  0  0  0  0
    0.3898   -2.1488    0.0000 C   0  0  0  0  0  0  0  0  0  0  0  0
    1.1062   -2.5610    0.0000 C   0  0  0  0  0  0  0  0  0  0  0  0
    1.8201   -2.1515    0.0000 O   0  0  0  0  0  0  0  0  0  0  0  0
    2.5323   -2.5638    0.0000 C   0  0  0  0  0  0  0  0  0  0  0  0
    1.1046   -3.3869    0.0000 C   0  0  0  0  0  0  0  0  0  0  0  0
  1  2  1  0  0  0  0 
  2  3  1  0  0  0  0 
  3  4  2  0  0  0  0 
  4  5  1  0  0  0  0 
  5  6  1  0  0  0  0 
  6  7  1  0  0  0  0 
  7  8  1  0  0  0  0 
  8  9  2  0  0  0  0 
  9 10  1  0  0  0  0 
 10 11  1  0  0  0  0 
 11 12  1  0  0  0  0 
 12 13  1  0  0  0  0 
 13 14  1  0  0  0  0 
 14 15  1  0  0  0  0 
 15 16  1  0  0  0  0 
 11 16  1  0  0  0  0 
 16 17  1  1  0  0  0 
  9 18  1  0  0  0  0 
 18 19  1  0  0  0  0 
 19 20  2  0  0  0  0 
 20 21  1  0  0  0  0 
 21 22  2  0  0  0  0 
 18 22  1  0  0  0  0 
 22 23  1  0  0  0  0 
  7 23  2  0  0  0  0 
 23 24  1  0  0  0  0 
 24 25  2  0  0  0  0 
 24 26  1  0  0  0  0 
  5 27  2  0  0  0  0 
 27 28  1  0  0  0  0 
 28 29  1  0  0  0  0 
 29 30  1  0  0  0  0 
 28 31  2  0  0  0  0 
  3 31  1  0  0  0  0 
M  END

>  <pIC50>
9.0

$$$$

  CDK    9/16/09,10:7

 32 35  0  0  0  0  0  0  0  0999 V2000
    6.7632   -6.6502    0.0000 C   0  0  0  0  0  0  0  0  0  0  0  0
    6.7632   -5.8285    0.0000 O   0  0  0  0  0  0  0  0  0  0  0  0
    7.4761   -5.4135    0.0000 C   0  0  0  0  0  0  0  0  0  0  0  0
    7.4761   -4.5918    0.0000 C   0  0  0  0  0  0  0  0  0  0  0  0
    8.1891   -4.1768    0.0000 C   0  0  0  0  0  0  0  0  0  0  0  0
    8.1891   -3.3552    0.0000 N   0  0  0  0  0  0  0  0  0  0  0  0
    7.4761   -2.9402    0.0000 C   0  0  0  0  0  0  0  0  0  0  0  0
    6.7632   -3.3552    0.0000 N   0  0  0  0  0  0  0  0  0  0  0  0
    6.0502   -2.9402    0.0000 C   0  0  0  0  0  0  0  0  0  0  0  0
    5.3331   -3.3552    0.0000 N   0  0  0  0  0  0  0  0  0  0  0  0
    5.3331   -4.1768    0.0000 C   0  0  0  0  0  0  0  0  0  0  0  0
    6.0771   -4.5344    0.0000 C   0  0  0  0  0  0  0  0  0  0  0  0
    6.2587   -5.3373    0.0000 C   0  0  0  0  0  0  0  0  0  0  0  0
    5.7439   -5.9829    0.0000 C   0  0  0  0  0  0  0  0  0  0  0  0
    4.9223   -5.9829    0.0000 C   0  0  0  0  0  0  0  0  0  0  0  0
    4.4075   -5.3373    0.0000 C   0  0  0  0  0  0  0  0  0  0  0  0
    4.5932   -4.5344    0.0000 C   0  0  0  0  0  0  0  0  0  0  0  0
    3.9477   -4.0238    0.0000 N   0  0  0  0  0  0  0  0  0  0  0  0
    6.0502   -2.1185    0.0000 N   0  0  0  0  0  0  0  0  0  0  0  0
    5.4363   -1.5677    0.0000 C   0  0  0  0  0  0  0  0  0  0  0  0
    5.7683   -0.8121    0.0000 C   0  0  0  0  0  0  0  0  0  0  0  0
    6.5915   -0.8966    0.0000 N   0  0  0  0  0  0  0  0  0  0  0  0
    6.7632   -1.7035    0.0000 C   0  0  0  0  0  0  0  0  0  0  0  0
    7.4761   -2.1185    0.0000 C   0  0  0  0  0  0  0  0  0  0  0  0
    8.1891   -1.7035    0.0000 C   0  0  0  0  0  0  0  0  0  0  0  0
    8.1891   -0.8818    0.0000 O   0  0  0  0  0  0  0  0  0  0  0  0
    8.9021   -2.1185    0.0000 N   0  0  0  0  0  0  0  0  0  0  0  0
    8.9021   -4.5918    0.0000 C   0  0  0  0  0  0  0  0  0  0  0  0
    8.9021   -5.4135    0.0000 C   0  0  0  0  0  0  0  0  0  0  0  0
    9.6192   -5.8285    0.0000 O   0  0  0  0  0  0  0  0  0  0  0  0
    9.6192   -6.6502    0.0000 C   0  0  0  0  0  0  0  0  0  0  0  0
    8.1891   -5.8285    0.0000 C   0  0  0  0  0  0  0  0  0  0  0  0
  1  2  1  0  0  0  0 
  2  3  1  0  0  0  0 
  3  4  1  0  0  0  0 
  4  5  2  0  0  0  0 
  5  6  1  0  0  0  0 
  6  7  1  0  0  0  0 
  7  8  1  0  0  0  0 
  8  9  2  0  0  0  0 
  9 10  1  0  0  0  0 
 10 11  1  0  0  0  0 
 11 12  1  0  0  0  0 
 12 13  1  0  0  0  0 
 13 14  1  0  0  0  0 
 14 15  1  0  0  0  0 
 15 16  1  0  0  0  0 
 16 17  1  0  0  0  0 
 11 17  1  0  0  0  0 
 17 18  1  1  0  0  0 
  9 19  1  0  0  0  0 
 19 20  1  0  0  0  0 
 20 21  2  0  0  0  0 
 21 22  1  0  0  0  0 
 22 23  2  0  0  0  0 
 19 23  1  0  0  0  0 
 23 24  1  0  0  0  0 
  7 24  2  0  0  0  0 
 24 25  1  0  0  0  0 
 25 26  2  0  0  0  0 
 25 27  1  0  0  0  0 
  5 28  1  0  0  0  0 
 28 29  2  0  0  0  0 
 29 30  1  0  0  0  0 
 30 31  1  0  0  0  0 
 29 32  1  0  0  0  0 
  3 32  2  0  0  0  0 
M  END

>  <pIC50>
8.79588001734

$$$$

  CDK    9/16/09,10:7

 29 32  0  0  0  0  0  0  0  0999 V2000
   17.2997   -6.6147    0.0000 C   0  0  0  0  0  0  0  0  0  0  0  0
   16.5875   -6.2043    0.0000 C   0  0  0  0  0  0  0  0  0  0  0  0
   15.8753   -6.6147    0.0000 C   0  0  0  0  0  0  0  0  0  0  0  0
   15.1588   -6.2043    0.0000 C   0  0  0  0  0  0  0  0  0  0  0  0
   14.4425   -6.6147    0.0000 C   0  0  0  0  0  0  0  0  0  0  0  0
   15.1588   -5.3793    0.0000 C   0  0  0  0  0  0  0  0  0  0  0  0
   15.8753   -4.9648    0.0000 C   0  0  0  0  0  0  0  0  0  0  0  0
   15.8753   -4.1398    0.0000 N   0  0  0  0  0  0  0  0  0  0  0  0
   15.1588   -3.7294    0.0000 C   0  0  0  0  0  0  0  0  0  0  0  0
   14.4425   -4.1398    0.0000 N   0  0  0  0  0  0  0  0  0  0  0  0
   13.7261   -3.7294    0.0000 C   0  0  0  0  0  0  0  0  0  0  0  0
   13.0138   -4.1398    0.0000 C   0  0  0  0  0  0  0  0  0  0  0  0
   13.0138   -4.9648    0.0000 C   0  0  0  0  0  0  0  0  0  0  0  0
   13.7261   -5.3793    0.0000 C   0  0  0  0  0  0  0  0  0  0  0  0
   13.7261   -6.2043    0.0000 C   0  0  0  0  0  0  0  0  0  0  0  0
   13.0138   -6.6147    0.0000 C   0  0  0  0  0  0  0  0  0  0  0  0
   12.2975   -6.2043    0.0000 C   0  0  0  0  0  0  0  0  0  0  0  0
   12.2975   -5.3793    0.0000 C   0  0  0  0  0  0  0  0  0  0  0  0
   11.5894   -4.9648    0.0000 N   0  0  0  0  0  0  0  0  0  0  0  0
   13.7261   -2.9044    0.0000 N   0  0  0  0  0  0  0  0  0  0  0  0
   13.1128   -2.3500    0.0000 C   0  0  0  0  0  0  0  0  0  0  0  0
   13.4528   -1.5953    0.0000 C   0  0  0  0  0  0  0  0  0  0  0  0
   14.2709   -1.6838    0.0000 N   0  0  0  0  0  0  0  0  0  0  0  0
   14.4425   -2.4899    0.0000 C   0  0  0  0  0  0  0  0  0  0  0  0
   15.1588   -2.9044    0.0000 C   0  0  0  0  0  0  0  0  0  0  0  0
   15.8753   -2.4899    0.0000 C   0  0  0  0  0  0  0  0  0  0  0  0
   15.8753   -1.6649    0.0000 O   0  0  0  0  0  0  0  0  0  0  0  0
   16.5875   -2.9044    0.0000 N   0  0  0  0  0  0  0  0  0  0  0  0
   16.5875   -5.3793    0.0000 C   0  0  0  0  0  0  0  0  0  0  0  0
  1  2  1  0  0  0  0 
  2  3  1  0  0  0  0 
  3  4  2  0  0  0  0 
  4  5  1  0  0  0  0 
  4  6  1  0  0  0  0 
  6  7  2  0  0  0  0 
  7  8  1  0  0  0  0 
  8  9  1  0  0  0  0 
  9 10  1  0  0  0  0 
 10 11  2  0  0  0  0 
 11 12  1  0  0  0  0 
 12 13  1  0  0  0  0 
 13 14  1  0  0  0  0 
 14 15  1  0  0  0  0 
 15 16  1  0  0  0  0 
 16 17  1  0  0  0  0 
 17 18  1  0  0  0  0 
 13 18  1  0  0  0  0 
 18 19  1  1  0  0  0 
 11 20  1  0  0  0  0 
 20 21  1  0  0  0  0 
 21 22  2  0  0  0  0 
 22 23  1  0  0  0  0 
 23 24  2  0  0  0  0 
 20 24  1  0  0  0  0 
 24 25  1  0  0  0  0 
  9 25  2  0  0  0  0 
 25 26  1  0  0  0  0 
 26 27  2  0  0  0  0 
 26 28  1  0  0  0  0 
  7 29  1  0  0  0  0 
  2 29  2  0  0  0  0 
M  END

>  <pIC50>
8.60205999133

$$$$

  CDK    9/16/09,10:7

 31 34  0  0  0  0  0  0  0  0999 V2000
   -1.9293  -14.0104    0.0000 C   0  0  0  0  0  0  0  0  0  0  0  0
   -1.9293  -13.1854    0.0000 O   0  0  0  0  0  0  0  0  0  0  0  0
   -1.2128  -12.7709    0.0000 C   0  0  0  0  0  0  0  0  0  0  0  0
   -1.2128  -11.9459    0.0000 C   0  0  0  0  0  0  0  0  0  0  0  0
   -0.4965  -11.5355    0.0000 C   0  0  0  0  0  0  0  0  0  0  0  0
   -0.4965  -10.7105    0.0000 N   0  0  0  0  0  0  0  0  0  0  0  0
   -1.2128  -10.2960    0.0000 C   0  0  0  0  0  0  0  0  0  0  0  0
   -1.9293  -10.7105    0.0000 N   0  0  0  0  0  0  0  0  0  0  0  0
   -2.6415  -10.2960    0.0000 C   0  0  0  0  0  0  0  0  0  0  0  0
   -3.3579  -10.7105    0.0000 N   0  0  0  0  0  0  0  0  0  0  0  0
   -3.3579  -11.5355    0.0000 C   0  0  0  0  0  0  0  0  0  0  0  0
   -2.6415  -11.9459    0.0000 C   0  0  0  0  0  0  0  0  0  0  0  0
   -2.6415  -12.7709    0.0000 C   0  0  0  0  0  0  0  0  0  0  0  0
   -3.3579  -13.1854    0.0000 C   0  0  0  0  0  0  0  0  0  0  0  0
   -4.0743  -12.7709    0.0000 C   0  0  0  0  0  0  0  0  0  0  0  0
   -4.0743  -11.9459    0.0000 C   0  0  0  0  0  0  0  0  0  0  0  0
   -4.7824  -11.5355    0.0000 N   0  0  0  0  0  0  0  0  0  0  0  0
   -2.6415   -9.4710    0.0000 N   0  0  0  0  0  0  0  0  0  0  0  0
   -3.2548   -8.9166    0.0000 C   0  0  0  0  0  0  0  0  0  0  0  0
   -2.9189   -8.1618    0.0000 N   0  0  0  0  0  0  0  0  0  0  0  0
   -2.1008   -8.2545    0.0000 N   0  0  0  0  0  0  0  0  0  0  0  0
   -1.9293   -9.0606    0.0000 C   0  0  0  0  0  0  0  0  0  0  0  0
   -1.2128   -9.4710    0.0000 C   0  0  0  0  0  0  0  0  0  0  0  0
   -0.4965   -9.0606    0.0000 C   0  0  0  0  0  0  0  0  0  0  0  0
   -0.4965   -8.2356    0.0000 O   0  0  0  0  0  0  0  0  0  0  0  0
    0.2158   -9.4710    0.0000 N   0  0  0  0  0  0  0  0  0  0  0  0
    0.2158  -11.9459    0.0000 C   0  0  0  0  0  0  0  0  0  0  0  0
    0.2158  -12.7709    0.0000 C   0  0  0  0  0  0  0  0  0  0  0  0
    0.9280  -13.1854    0.0000 O   0  0  0  0  0  0  0  0  0  0  0  0
    0.9280  -14.0104    0.0000 C   0  0  0  0  0  0  0  0  0  0  0  0
   -0.4965  -13.1854    0.0000 C   0  0  0  0  0  0  0  0  0  0  0  0
  1  2  1  0  0  0  0 
  2  3  1  0  0  0  0 
  3  4  1  0  0  0  0 
  4  5  2  0  0  0  0 
  5  6  1  0  0  0  0 
  6  7  1  0  0  0  0 
  7  8  1  0  0  0  0 
  8  9  2  0  0  0  0 
  9 10  1  0  0  0  0 
 10 11  1  0  0  0  0 
 11 12  1  0  0  0  0 
 12 13  1  0  0  0  0 
 13 14  1  0  0  0  0 
 14 15  1  0  0  0  0 
 15 16  1  0  0  0  0 
 11 16  1  0  0  0  0 
 16 17  1  1  0  0  0 
  9 18  1  0  0  0  0 
 18 19  1  0  0  0  0 
 19 20  2  0  0  0  0 
 20 21  1  0  0  0  0 
 21 22  2  0  0  0  0 
 18 22  1  0  0  0  0 
 22 23  1  0  0  0  0 
  7 23  2  0  0  0  0 
 23 24  1  0  0  0  0 
 24 25  2  0  0  0  0 
 24 26  1  0  0  0  0 
  5 27  1  0  0  0  0 
 27 28  2  0  0  0  0 
 28 29  1  0  0  0  0 
 29 30  1  0  0  0  0 
 28 31  1  0  0  0  0 
  3 31  2  0  0  0  0 
M  END

>  <pIC50>
8.43179827593

$$$$

  CDK    9/16/09,10:7

 31 34  0  0  0  0  0  0  0  0999 V2000
    5.8839  -14.4083    0.0000 C   0  0  0  0  0  0  0  0  0  0  0  0
    5.8839  -13.5833    0.0000 O   0  0  0  0  0  0  0  0  0  0  0  0
    6.5997  -13.1708    0.0000 C   0  0  0  0  0  0  0  0  0  0  0  0
    6.5997  -12.3458    0.0000 C   0  0  0  0  0  0  0  0  0  0  0  0
    7.3156  -11.9333    0.0000 C   0  0  0  0  0  0  0  0  0  0  0  0
    7.3156  -11.1083    0.0000 N   0  0  0  0  0  0  0  0  0  0  0  0
    6.5997  -10.6958    0.0000 C   0  0  0  0  0  0  0  0  0  0  0  0
    5.8839  -11.1083    0.0000 N   0  0  0  0  0  0  0  0  0  0  0  0
    5.1680  -10.6958    0.0000 C   0  0  0  0  0  0  0  0  0  0  0  0
    4.4563  -11.1083    0.0000 N   0  0  0  0  0  0  0  0  0  0  0  0
    4.4563  -11.9333    0.0000 C   0  0  0  0  0  0  0  0  0  0  0  0
    5.1680  -12.3458    0.0000 C   0  0  0  0  0  0  0  0  0  0  0  0
    5.1680  -13.1708    0.0000 C   0  0  0  0  0  0  0  0  0  0  0  0
    4.4563  -13.5833    0.0000 C   0  0  0  0  0  0  0  0  0  0  0  0
    3.7404  -13.1708    0.0000 C   0  0  0  0  0  0  0  0  0  0  0  0
    3.7404  -12.3458    0.0000 C   0  0  0  0  0  0  0  0  0  0  0  0
    3.0287  -11.9333    0.0000 N   0  0  0  0  0  0  0  0  0  0  0  0
    5.1680   -9.8708    0.0000 N   0  0  0  0  0  0  0  0  0  0  0  0
    4.5557   -9.3178    0.0000 N   0  0  0  0  0  0  0  0  0  0  0  0
    4.8933   -8.5633    0.0000 C   0  0  0  0  0  0  0  0  0  0  0  0
    5.7115   -8.6523    0.0000 N   0  0  0  0  0  0  0  0  0  0  0  0
    5.8839   -9.4583    0.0000 C   0  0  0  0  0  0  0  0  0  0  0  0
    6.5997   -9.8708    0.0000 C   0  0  0  0  0  0  0  0  0  0  0  0
    7.3156   -9.4583    0.0000 C   0  0  0  0  0  0  0  0  0  0  0  0
    7.3156   -8.6333    0.0000 O   0  0  0  0  0  0  0  0  0  0  0  0
    8.0273   -9.8708    0.0000 N   0  0  0  0  0  0  0  0  0  0  0  0
    8.0273  -12.3458    0.0000 C   0  0  0  0  0  0  0  0  0  0  0  0
    8.0273  -13.1708    0.0000 C   0  0  0  0  0  0  0  0  0  0  0  0
    8.7431  -13.5833    0.0000 O   0  0  0  0  0  0  0  0  0  0  0  0
    8.7431  -14.4083    0.0000 C   0  0  0  0  0  0  0  0  0  0  0  0
    7.3156  -13.5833    0.0000 C   0  0  0  0  0  0  0  0  0  0  0  0
  1  2  1  0  0  0  0 
  2  3  1  0  0  0  0 
  3  4  1  0  0  0  0 
  4  5  2  0  0  0  0 
  5  6  1  0  0  0  0 
  6  7  1  0  0  0  0 
  7  8  1  0  0  0  0 
  8  9  2  0  0  0  0 
  9 10  1  0  0  0  0 
 11 10  1  6  0  0  0 
 11 12  1  0  0  0  0 
 12 13  1  0  0  0  0 
 13 14  1  0  0  0  0 
 14 15  1  0  0  0  0 
 15 16  1  0  0  0  0 
 11 16  1  0  0  0  0 
 16 17  1  6  0  0  0 
  9 18  1  0  0  0  0 
 18 19  1  0  0  0  0 
 19 20  2  0  0  0  0 
 20 21  1  0  0  0  0 
 21 22  2  0  0  0  0 
 18 22  1  0  0  0  0 
 22 23  1  0  0  0  0 
  7 23  2  0  0  0  0 
 23 24  1  0  0  0  0 
 24 25  2  0  0  0  0 
 24 26  1  0  0  0  0 
  5 27  1  0  0  0  0 
 27 28  2  0  0  0  0 
 28 29  1  0  0  0  0 
 29 30  1  0  0  0  0 
 28 31  1  0  0  0  0 
  3 31  2  0  0  0  0 
M  END

>  <pIC50>
8.39794000867

$$$$

  CDK    9/16/09,10:7

 29 32  0  0  0  0  0  0  0  0999 V2000
   16.7006  -13.7260    0.0000 C   0  0  0  0  0  0  0  0  0  0  0  0
   15.9883  -13.3155    0.0000 C   0  0  0  0  0  0  0  0  0  0  0  0
   15.2760  -13.7260    0.0000 C   0  0  0  0  0  0  0  0  0  0  0  0
   14.5595  -13.3155    0.0000 C   0  0  0  0  0  0  0  0  0  0  0  0
   13.8430  -13.7260    0.0000 C   0  0  0  0  0  0  0  0  0  0  0  0
   14.5595  -12.4905    0.0000 C   0  0  0  0  0  0  0  0  0  0  0  0
   15.2760  -12.0759    0.0000 C   0  0  0  0  0  0  0  0  0  0  0  0
   15.2760  -11.2508    0.0000 N   0  0  0  0  0  0  0  0  0  0  0  0
   14.5595  -10.8403    0.0000 C   0  0  0  0  0  0  0  0  0  0  0  0
   13.8430  -11.2508    0.0000 N   0  0  0  0  0  0  0  0  0  0  0  0
   13.1266  -10.8403    0.0000 C   0  0  0  0  0  0  0  0  0  0  0  0
   12.4143  -11.2508    0.0000 N   0  0  0  0  0  0  0  0  0  0  0  0
   12.4143  -12.0759    0.0000 C   0  0  0  0  0  0  0  0  0  0  0  0
   13.1266  -12.4905    0.0000 C   0  0  0  0  0  0  0  0  0  0  0  0
   13.1266  -13.3155    0.0000 C   0  0  0  0  0  0  0  0  0  0  0  0
   12.4143  -13.7260    0.0000 C   0  0  0  0  0  0  0  0  0  0  0  0
   11.6978  -13.3155    0.0000 C   0  0  0  0  0  0  0  0  0  0  0  0
   11.6978  -12.4905    0.0000 C   0  0  0  0  0  0  0  0  0  0  0  0
   10.9896  -12.0759    0.0000 N   0  0  0  0  0  0  0  0  0  0  0  0
   13.1266  -10.0153    0.0000 N   0  0  0  0  0  0  0  0  0  0  0  0
   12.5132   -9.4608    0.0000 C   0  0  0  0  0  0  0  0  0  0  0  0
   12.8532   -8.7059    0.0000 C   0  0  0  0  0  0  0  0  0  0  0  0
   13.6716   -8.7945    0.0000 N   0  0  0  0  0  0  0  0  0  0  0  0
   13.8430   -9.6007    0.0000 C   0  0  0  0  0  0  0  0  0  0  0  0
   14.5595  -10.0153    0.0000 C   0  0  0  0  0  0  0  0  0  0  0  0
   15.2760   -9.6007    0.0000 C   0  0  0  0  0  0  0  0  0  0  0  0
   15.2760   -8.7756    0.0000 O   0  0  0  0  0  0  0  0  0  0  0  0
   15.9883  -10.0153    0.0000 N   0  0  0  0  0  0  0  0  0  0  0  0
   15.9883  -12.4905    0.0000 C   0  0  0  0  0  0  0  0  0  0  0  0
  1  2  1  0  0  0  0 
  2  3  1  0  0  0  0 
  3  4  2  0  0  0  0 
  4  5  1  0  0  0  0 
  4  6  1  0  0  0  0 
  6  7  2  0  0  0  0 
  7  8  1  0  0  0  0 
  8  9  1  0  0  0  0 
  9 10  1  0  0  0  0 
 10 11  2  0  0  0  0 
 11 12  1  0  0  0  0 
 13 12  1  6  0  0  0 
 13 14  1  0  0  0  0 
 14 15  1  0  0  0  0 
 15 16  1  0  0  0  0 
 16 17  1  0  0  0  0 
 17 18  1  0  0  0  0 
 13 18  1  0  0  0  0 
 18 19  1  6  0  0  0 
 11 20  1  0  0  0  0 
 20 21  1  0  0  0  0 
 21 22  2  0  0  0  0 
 22 23  1  0  0  0  0 
 23 24  2  0  0  0  0 
 20 24  1  0  0  0  0 
 24 25  1  0  0  0  0 
  9 25  2  0  0  0  0 
 25 26  1  0  0  0  0 
 26 27  2  0  0  0  0 
 26 28  1  0  0  0  0 
  7 29  1  0  0  0  0 
  2 29  2  0  0  0  0 
M  END

>  <pIC50>
8.22184874962

$$$$

  CDK    9/16/09,10:7

 38 42  0  0  0  0  0  0  0  0999 V2000
   -3.0559  -16.9446    0.0000 C   0  0  0  0  0  0  0  0  0  0  0  0
   -2.3400  -17.3571    0.0000 O   0  0  0  0  0  0  0  0  0  0  0  0
   -2.3400  -18.1821    0.0000 C   0  0  0  0  0  0  0  0  0  0  0  0
   -1.6283  -18.5946    0.0000 C   0  0  0  0  0  0  0  0  0  0  0  0
   -1.6283  -19.4196    0.0000 C   0  0  0  0  0  0  0  0  0  0  0  0
   -0.9124  -19.8321    0.0000 N   0  0  0  0  0  0  0  0  0  0  0  0
   -0.1966  -19.4196    0.0000 C   0  0  0  0  0  0  0  0  0  0  0  0
   -0.1966  -18.5946    0.0000 N   0  0  0  0  0  0  0  0  0  0  0  0
    0.5193  -18.1821    0.0000 C   0  0  0  0  0  0  0  0  0  0  0  0
    0.5193  -17.3571    0.0000 N   0  0  0  0  0  0  0  0  0  0  0  0
   -0.1966  -16.9446    0.0000 C   0  0  0  0  0  0  0  0  0  0  0  0
   -0.9124  -17.3571    0.0000 C   0  0  0  0  0  0  0  0  0  0  0  0
   -1.6283  -16.9446    0.0000 C   0  0  0  0  0  0  0  0  0  0  0  0
   -1.6283  -16.1196    0.0000 C   0  0  0  0  0  0  0  0  0  0  0  0
   -0.9124  -15.7071    0.0000 C   0  0  0  0  0  0  0  0  0  0  0  0
   -0.1966  -16.1196    0.0000 C   0  0  0  0  0  0  0  0  0  0  0  0
    0.5193  -15.7071    0.0000 N   0  0  0  0  0  0  0  0  0  0  0  0
    1.2310  -18.5946    0.0000 N   0  0  0  0  0  0  0  0  0  0  0  0
    2.0156  -18.3417    0.0000 N   0  0  0  0  0  0  0  0  0  0  0  0
    2.5004  -19.0071    0.0000 C   0  0  0  0  0  0  0  0  0  0  0  0
    2.0156  -19.6809    0.0000 N   0  0  0  0  0  0  0  0  0  0  0  0
    1.2310  -19.4196    0.0000 C   0  0  0  0  0  0  0  0  0  0  0  0
    0.5193  -19.8321    0.0000 C   0  0  0  0  0  0  0  0  0  0  0  0
    0.5193  -20.6571    0.0000 C   0  0  0  0  0  0  0  0  0  0  0  0
   -0.1966  -21.0696    0.0000 O   0  0  0  0  0  0  0  0  0  0  0  0
    1.2310  -21.0696    0.0000 N   0  0  0  0  0  0  0  0  0  0  0  0
    3.3254  -19.0071    0.0000 C   0  0  0  0  0  0  0  0  0  0  0  0
    3.7379  -18.2954    0.0000 C   0  0  0  0  0  0  0  0  0  0  0  0
    4.5629  -18.2954    0.0000 C   0  0  0  0  0  0  0  0  0  0  0  0
    4.9754  -19.0071    0.0000 C   0  0  0  0  0  0  0  0  0  0  0  0
    4.5629  -19.7230    0.0000 C   0  0  0  0  0  0  0  0  0  0  0  0
    4.9754  -20.4347    0.0000 O   0  0  0  0  0  0  0  0  0  0  0  0
    3.7379  -19.7230    0.0000 C   0  0  0  0  0  0  0  0  0  0  0  0
   -2.3400  -19.8321    0.0000 C   0  0  0  0  0  0  0  0  0  0  0  0
   -3.0559  -19.4196    0.0000 C   0  0  0  0  0  0  0  0  0  0  0  0
   -3.7676  -19.8321    0.0000 O   0  0  0  0  0  0  0  0  0  0  0  0
   -4.4834  -19.4196    0.0000 C   0  0  0  0  0  0  0  0  0  0  0  0
   -3.0559  -18.5946    0.0000 C   0  0  0  0  0  0  0  0  0  0  0  0
  1  2  1  0  0  0  0 
  2  3  1  0  0  0  0 
  3  4  1  0  0  0  0 
  4  5  2  0  0  0  0 
  5  6  1  0  0  0  0 
  6  7  1  0  0  0  0 
  7  8  1  0  0  0  0 
  8  9  2  0  0  0  0 
  9 10  1  0  0  0  0 
 10 11  1  0  0  0  0 
 11 12  1  0  0  0  0 
 12 13  1  0  0  0  0 
 13 14  1  0  0  0  0 
 14 15  1  0  0  0  0 
 15 16  1  0  0  0  0 
 11 16  1  0  0  0  0 
 16 17  1  1  0  0  0 
  9 18  1  0  0  0  0 
 18 19  1  0  0  0  0 
 19 20  2  0  0  0  0 
 20 21  1  0  0  0  0 
 21 22  2  0  0  0  0 
 18 22  1  0  0  0  0 
 22 23  1  0  0  0  0 
  7 23  2  0  0  0  0 
 23 24  1  0  0  0  0 
 24 25  2  0  0  0  0 
 24 26  1  0  0  0  0 
 20 27  1  0  0  0  0 
 27 28  2  0  0  0  0 
 28 29  1  0  0  0  0 
 29 30  2  0  0  0  0 
 30 31  1  0  0  0  0 
 31 32  1  0  0  0  0 
 31 33  2  0  0  0  0 
 27 33  1  0  0  0  0 
  5 34  1  0  0  0  0 
 34 35  2  0  0  0  0 
 35 36  1  0  0  0  0 
 36 37  1  0  0  0  0 
 35 38  1  0  0  0  0 
  3 38  2  0  0  0  0 
M  END

>  <pIC50>
8.15490195999

$$$$

  CDK    9/16/09,10:7

 31 34  0  0  0  0  0  0  0  0999 V2000
    8.8533  -21.6155    0.0000 C   0  0  0  0  0  0  0  0  0  0  0  0
    8.8533  -20.7905    0.0000 O   0  0  0  0  0  0  0  0  0  0  0  0
    9.5698  -20.3759    0.0000 C   0  0  0  0  0  0  0  0  0  0  0  0
    9.5698  -19.5510    0.0000 C   0  0  0  0  0  0  0  0  0  0  0  0
   10.2861  -19.1406    0.0000 C   0  0  0  0  0  0  0  0  0  0  0  0
   10.2861  -18.3156    0.0000 N   0  0  0  0  0  0  0  0  0  0  0  0
    9.5698  -17.9010    0.0000 C   0  0  0  0  0  0  0  0  0  0  0  0
    8.8533  -18.3156    0.0000 N   0  0  0  0  0  0  0  0  0  0  0  0
    8.1412  -17.9010    0.0000 C   0  0  0  0  0  0  0  0  0  0  0  0
    7.4247  -18.3156    0.0000 N   0  0  0  0  0  0  0  0  0  0  0  0
    7.4247  -19.1406    0.0000 C   0  0  0  0  0  0  0  0  0  0  0  0
    8.1412  -19.5510    0.0000 C   0  0  0  0  0  0  0  0  0  0  0  0
    8.1412  -20.3759    0.0000 C   0  0  0  0  0  0  0  0  0  0  0  0
    7.4247  -20.7905    0.0000 C   0  0  0  0  0  0  0  0  0  0  0  0
    6.7083  -20.3759    0.0000 C   0  0  0  0  0  0  0  0  0  0  0  0
    6.7083  -19.5510    0.0000 C   0  0  0  0  0  0  0  0  0  0  0  0
    6.0003  -19.1406    0.0000 N   0  0  0  0  0  0  0  0  0  0  0  0
    8.1412  -17.0761    0.0000 N   0  0  0  0  0  0  0  0  0  0  0  0
    7.5278  -16.5216    0.0000 C   0  0  0  0  0  0  0  0  0  0  0  0
    7.8637  -15.7668    0.0000 N   0  0  0  0  0  0  0  0  0  0  0  0
    8.6818  -15.8596    0.0000 N   0  0  0  0  0  0  0  0  0  0  0  0
    8.8533  -16.6657    0.0000 C   0  0  0  0  0  0  0  0  0  0  0  0
    9.5698  -17.0761    0.0000 C   0  0  0  0  0  0  0  0  0  0  0  0
   10.2861  -16.6657    0.0000 C   0  0  0  0  0  0  0  0  0  0  0  0
   10.2861  -15.8407    0.0000 O   0  0  0  0  0  0  0  0  0  0  0  0
   10.9984  -17.0761    0.0000 N   0  0  0  0  0  0  0  0  0  0  0  0
   10.9984  -19.5510    0.0000 C   0  0  0  0  0  0  0  0  0  0  0  0
   10.9984  -20.3759    0.0000 C   0  0  0  0  0  0  0  0  0  0  0  0
   11.7106  -20.7905    0.0000 O   0  0  0  0  0  0  0  0  0  0  0  0
   11.7106  -21.6155    0.0000 C   0  0  0  0  0  0  0  0  0  0  0  0
   10.2861  -20.7905    0.0000 C   0  0  0  0  0  0  0  0  0  0  0  0
  1  2  1  0  0  0  0 
  2  3  1  0  0  0  0 
  3  4  1  0  0  0  0 
  4  5  2  0  0  0  0 
  5  6  1  0  0  0  0 
  6  7  1  0  0  0  0 
  7  8  1  0  0  0  0 
  8  9  2  0  0  0  0 
  9 10  1  0  0  0  0 
 11 10  1  6  0  0  0 
 11 12  1  0  0  0  0 
 12 13  1  0  0  0  0 
 13 14  1  0  0  0  0 
 14 15  1  0  0  0  0 
 15 16  1  0  0  0  0 
 11 16  1  0  0  0  0 
 16 17  1  6  0  0  0 
  9 18  1  0  0  0  0 
 18 19  1  0  0  0  0 
 19 20  2  0  0  0  0 
 20 21  1  0  0  0  0 
 21 22  2  0  0  0  0 
 18 22  1  0  0  0  0 
 22 23  1  0  0  0  0 
  7 23  2  0  0  0  0 
 23 24  1  0  0  0  0 
 24 25  2  0  0  0  0 
 24 26  1  0  0  0  0 
  5 27  1  0  0  0  0 
 27 28  2  0  0  0  0 
 28 29  1  0  0  0  0 
 29 30  1  0  0  0  0 
 28 31  1  0  0  0  0 
  3 31  2  0  0  0  0 
M  END

>  <pIC50>
8.04575749056

$$$$

  CDK    9/16/09,10:7

 27 29  0  0  0  0  0  0  0  0999 V2000
   14.4653  -16.3385    0.0000 C   0  0  0  0  0  0  0  0  0  0  0  0
   15.1802  -16.7504    0.0000 O   0  0  0  0  0  0  0  0  0  0  0  0
   15.1802  -17.5743    0.0000 C   0  0  0  0  0  0  0  0  0  0  0  0
   15.8951  -17.9862    0.0000 C   0  0  0  0  0  0  0  0  0  0  0  0
   15.8951  -18.8101    0.0000 C   0  0  0  0  0  0  0  0  0  0  0  0
   16.6058  -19.2220    0.0000 N   0  0  0  0  0  0  0  0  0  0  0  0
   17.3206  -18.8101    0.0000 C   0  0  0  0  0  0  0  0  0  0  0  0
   17.3206  -17.9862    0.0000 N   0  0  0  0  0  0  0  0  0  0  0  0
   18.0355  -17.5743    0.0000 C   0  0  0  0  0  0  0  0  0  0  0  0
   18.0355  -16.7504    0.0000 N   0  0  0  0  0  0  0  0  0  0  0  0
   17.3206  -16.3385    0.0000 C   0  0  0  0  0  0  0  0  0  0  0  0
   16.6058  -16.7504    0.0000 C   0  0  0  0  0  0  0  0  0  0  0  0
   15.8951  -16.3385    0.0000 N   0  0  0  0  0  0  0  0  0  0  0  0
   18.7462  -17.9862    0.0000 N   0  0  0  0  0  0  0  0  0  0  0  0
   19.5297  -17.7295    0.0000 C   0  0  0  0  0  0  0  0  0  0  0  0
   20.0139  -18.3981    0.0000 N   0  0  0  0  0  0  0  0  0  0  0  0
   19.5297  -19.0668    0.0000 N   0  0  0  0  0  0  0  0  0  0  0  0
   18.7462  -18.8101    0.0000 C   0  0  0  0  0  0  0  0  0  0  0  0
   18.0355  -19.2220    0.0000 C   0  0  0  0  0  0  0  0  0  0  0  0
   18.0355  -20.0458    0.0000 C   0  0  0  0  0  0  0  0  0  0  0  0
   18.7462  -20.4578    0.0000 O   0  0  0  0  0  0  0  0  0  0  0  0
   17.3206  -20.4578    0.0000 N   0  0  0  0  0  0  0  0  0  0  0  0
   15.1802  -19.2220    0.0000 C   0  0  0  0  0  0  0  0  0  0  0  0
   14.4653  -18.8101    0.0000 C   0  0  0  0  0  0  0  0  0  0  0  0
   13.7546  -19.2220    0.0000 O   0  0  0  0  0  0  0  0  0  0  0  0
   13.0398  -18.8101    0.0000 C   0  0  0  0  0  0  0  0  0  0  0  0
   14.4653  -17.9862    0.0000 C   0  0  0  0  0  0  0  0  0  0  0  0
  1  2  1  0  0  0  0 
  2  3  1  0  0  0  0 
  3  4  1  0  0  0  0 
  4  5  2  0  0  0  0 
  5  6  1  0  0  0  0 
  6  7  1  0  0  0  0 
  7  8  1  0  0  0  0 
  8  9  2  0  0  0  0 
  9 10  1  0  0  0  0 
 10 11  1  0  0  0  0 
 11 12  1  0  0  0  0 
 12 13  1  0  0  0  0 
  9 14  1  0  0  0  0 
 14 15  1  0  0  0  0 
 15 16  2  0  0  0  0 
 16 17  1  0  0  0  0 
 17 18  2  0  0  0  0 
 14 18  1  0  0  0  0 
 18 19  1  0  0  0  0 
  7 19  2  0  0  0  0 
 19 20  1  0  0  0  0 
 20 21  2  0  0  0  0 
 20 22  1  0  0  0  0 
  5 23  1  0  0  0  0 
 23 24  2  0  0  0  0 
 24 25  1  0  0  0  0 
 25 26  1  0  0  0  0 
 24 27  1  0  0  0  0 
  3 27  2  0  0  0  0 
M  END

>  <pIC50>
8.04575749056

$$$$

  CDK    9/16/09,10:7

 31 34  0  0  0  0  0  0  0  0999 V2000
   -1.9307   -6.1505    0.0000 C   0  0  0  0  0  0  0  0  0  0  0  0
   -1.9307   -5.3255    0.0000 O   0  0  0  0  0  0  0  0  0  0  0  0
   -1.2149   -4.9130    0.0000 C   0  0  0  0  0  0  0  0  0  0  0  0
   -1.2149   -4.0880    0.0000 C   0  0  0  0  0  0  0  0  0  0  0  0
   -0.4990   -3.6755    0.0000 C   0  0  0  0  0  0  0  0  0  0  0  0
   -0.4990   -2.8505    0.0000 N   0  0  0  0  0  0  0  0  0  0  0  0
   -1.2149   -2.4380    0.0000 C   0  0  0  0  0  0  0  0  0  0  0  0
   -1.9307   -2.8505    0.0000 N   0  0  0  0  0  0  0  0  0  0  0  0
   -2.6424   -2.4380    0.0000 C   0  0  0  0  0  0  0  0  0  0  0  0
   -3.3583   -2.8505    0.0000 N   0  0  0  0  0  0  0  0  0  0  0  0
   -3.3583   -3.6755    0.0000 C   0  0  0  0  0  0  0  0  0  0  0  0
   -2.6424   -4.0880    0.0000 C   0  0  0  0  0  0  0  0  0  0  0  0
   -2.6424   -4.9130    0.0000 C   0  0  0  0  0  0  0  0  0  0  0  0
   -3.3583   -5.3255    0.0000 C   0  0  0  0  0  0  0  0  0  0  0  0
   -4.0742   -4.9130    0.0000 C   0  0  0  0  0  0  0  0  0  0  0  0
   -4.0742   -4.0880    0.0000 C   0  0  0  0  0  0  0  0  0  0  0  0
   -4.7859   -3.6755    0.0000 N   0  0  0  0  0  0  0  0  0  0  0  0
   -2.6424   -1.6130    0.0000 N   0  0  0  0  0  0  0  0  0  0  0  0
   -3.2547   -1.0599    0.0000 C   0  0  0  0  0  0  0  0  0  0  0  0
   -2.9213   -0.3054    0.0000 N   0  0  0  0  0  0  0  0  0  0  0  0
   -2.1031   -0.3903    0.0000 N   0  0  0  0  0  0  0  0  0  0  0  0
   -1.9307   -1.2005    0.0000 C   0  0  0  0  0  0  0  0  0  0  0  0
   -1.2149   -1.6130    0.0000 C   0  0  0  0  0  0  0  0  0  0  0  0
   -0.4990   -1.2005    0.0000 C   0  0  0  0  0  0  0  0  0  0  0  0
   -0.4990   -0.3755    0.0000 O   0  0  0  0  0  0  0  0  0  0  0  0
    0.2127   -1.6130    0.0000 N   0  0  0  0  0  0  0  0  0  0  0  0
    0.2127   -4.0880    0.0000 C   0  0  0  0  0  0  0  0  0  0  0  0
    0.2127   -4.9130    0.0000 C   0  0  0  0  0  0  0  0  0  0  0  0
    0.9286   -5.3255    0.0000 O   0  0  0  0  0  0  0  0  0  0  0  0
    0.9286   -6.1505    0.0000 C   0  0  0  0  0  0  0  0  0  0  0  0
   -0.4990   -5.3255    0.0000 C   0  0  0  0  0  0  0  0  0  0  0  0
  1  2  1  0  0  0  0 
  2  3  1  0  0  0  0 
  3  4  1  0  0  0  0 
  4  5  2  0  0  0  0 
  5  6  1  0  0  0  0 
  6  7  1  0  0  0  0 
  7  8  1  0  0  0  0 
  8  9  2  0  0  0  0 
  9 10  1  0  0  0  0 
 11 10  1  1  0  0  0 
 11 12  1  0  0  0  0 
 12 13  1  0  0  0  0 
 13 14  1  0  0  0  0 
 14 15  1  0  0  0  0 
 15 16  1  0  0  0  0 
 11 16  1  0  0  0  0 
 16 17  1  1  0  0  0 
  9 18  1  0  0  0  0 
 18 19  1  0  0  0  0 
 19 20  2  0  0  0  0 
 20 21  1  0  0  0  0 
 21 22  2  0  0  0  0 
 18 22  1  0  0  0  0 
 22 23  1  0  0  0  0 
  7 23  2  0  0  0  0 
 23 24  1  0  0  0  0 
 24 25  2  0  0  0  0 
 24 26  1  0  0  0  0 
  5 27  1  0  0  0  0 
 27 28  2  0  0  0  0 
 28 29  1  0  0  0  0 
 29 30  1  0  0  0  0 
 28 31  1  0  0  0  0 
  3 31  2  0  0  0  0 
M  END

>  <pIC50>
8.04575749056

$$$$

  CDK    9/16/09,10:7

 32 35  0  0  0  0  0  0  0  0999 V2000
    4.9275   -6.4735    0.0000 C   0  0  0  0  0  0  0  0  0  0  0  0
    4.9275   -5.6485    0.0000 O   0  0  0  0  0  0  0  0  0  0  0  0
    5.6439   -5.2340    0.0000 C   0  0  0  0  0  0  0  0  0  0  0  0
    5.6439   -4.4091    0.0000 C   0  0  0  0  0  0  0  0  0  0  0  0
    6.3603   -3.9986    0.0000 C   0  0  0  0  0  0  0  0  0  0  0  0
    6.3603   -3.1736    0.0000 N   0  0  0  0  0  0  0  0  0  0  0  0
    5.6439   -2.7591    0.0000 C   0  0  0  0  0  0  0  0  0  0  0  0
    4.9275   -3.1736    0.0000 N   0  0  0  0  0  0  0  0  0  0  0  0
    4.2152   -2.7591    0.0000 C   0  0  0  0  0  0  0  0  0  0  0  0
    3.4989   -3.1736    0.0000 N   0  0  0  0  0  0  0  0  0  0  0  0
    3.4989   -3.9986    0.0000 C   0  0  0  0  0  0  0  0  0  0  0  0
    4.2152   -4.4091    0.0000 C   0  0  0  0  0  0  0  0  0  0  0  0
    4.2152   -5.2340    0.0000 C   0  0  0  0  0  0  0  0  0  0  0  0
    3.4989   -5.6485    0.0000 C   0  0  0  0  0  0  0  0  0  0  0  0
    2.7825   -5.2340    0.0000 C   0  0  0  0  0  0  0  0  0  0  0  0
    2.7825   -4.4091    0.0000 C   0  0  0  0  0  0  0  0  0  0  0  0
    2.0744   -3.9986    0.0000 N   0  0  0  0  0  0  0  0  0  0  0  0
    4.2152   -1.9342    0.0000 N   0  0  0  0  0  0  0  0  0  0  0  0
    3.6020   -1.3839    0.0000 N   0  0  0  0  0  0  0  0  0  0  0  0
    3.9379   -0.6291    0.0000 C   0  0  0  0  0  0  0  0  0  0  0  0
    3.5233    0.0832    0.0000 C   0  0  0  0  0  0  0  0  0  0  0  0
    4.7560   -0.7135    0.0000 N   0  0  0  0  0  0  0  0  0  0  0  0
    4.9275   -1.5237    0.0000 C   0  0  0  0  0  0  0  0  0  0  0  0
    5.6439   -1.9342    0.0000 C   0  0  0  0  0  0  0  0  0  0  0  0
    6.3603   -1.5237    0.0000 C   0  0  0  0  0  0  0  0  0  0  0  0
    6.3603   -0.6987    0.0000 O   0  0  0  0  0  0  0  0  0  0  0  0
    7.0725   -1.9342    0.0000 N   0  0  0  0  0  0  0  0  0  0  0  0
    7.0725   -4.4091    0.0000 C   0  0  0  0  0  0  0  0  0  0  0  0
    7.0725   -5.2340    0.0000 C   0  0  0  0  0  0  0  0  0  0  0  0
    7.7848   -5.6485    0.0000 O   0  0  0  0  0  0  0  0  0  0  0  0
    7.7848   -6.4735    0.0000 C   0  0  0  0  0  0  0  0  0  0  0  0
    6.3603   -5.6485    0.0000 C   0  0  0  0  0  0  0  0  0  0  0  0
  1  2  1  0  0  0  0 
  2  3  1  0  0  0  0 
  3  4  1  0  0  0  0 
  4  5  2  0  0  0  0 
  5  6  1  0  0  0  0 
  6  7  1  0  0  0  0 
  7  8  1  0  0  0  0 
  8  9  2  0  0  0  0 
  9 10  1  0  0  0  0 
 10 11  1  0  0  0  0 
 11 12  1  0  0  0  0 
 12 13  1  0  0  0  0 
 13 14  1  0  0  0  0 
 14 15  1  0  0  0  0 
 15 16  1  0  0  0  0 
 11 16  1  0  0  0  0 
 16 17  1  1  0  0  0 
  9 18  1  0  0  0  0 
 18 19  1  0  0  0  0 
 19 20  2  0  0  0  0 
 20 21  1  0  0  0  0 
 20 22  1  0  0  0  0 
 22 23  2  0  0  0  0 
 18 23  1  0  0  0  0 
 23 24  1  0  0  0  0 
  7 24  2  0  0  0  0 
 24 25  1  0  0  0  0 
 25 26  2  0  0  0  0 
 25 27  1  0  0  0  0 
  5 28  1  0  0  0  0 
 28 29  2  0  0  0  0 
 29 30  1  0  0  0  0 
 30 31  1  0  0  0  0 
 29 32  1  0  0  0  0 
  3 32  2  0  0  0  0 
M  END

>  <pIC50>
7.95078197733

$$$$

  CDK    9/16/09,10:7

 25 27  0  0  0  0  0  0  0  0999 V2000
   18.2884   -1.7175    0.0000 C   0  0  0  0  0  0  0  0  0  0  0  0
   17.5807   -1.2990    0.0000 N   0  0  0  0  0  0  0  0  0  0  0  0
   17.5860   -0.4733    0.0000 C   0  0  0  0  0  0  0  0  0  0  0  0
   16.8623   -1.7046    0.0000 C   0  0  0  0  0  0  0  0  0  0  0  0
   16.8551   -2.5267    0.0000 C   0  0  0  0  0  0  0  0  0  0  0  0
   16.1365   -2.9323    0.0000 C   0  0  0  0  0  0  0  0  0  0  0  0
   15.4290   -2.5138    0.0000 C   0  0  0  0  0  0  0  0  0  0  0  0
   15.4341   -1.6881    0.0000 C   0  0  0  0  0  0  0  0  0  0  0  0
   16.1526   -1.2825    0.0000 C   0  0  0  0  0  0  0  0  0  0  0  0
   14.7104   -2.9194    0.0000 C   0  0  0  0  0  0  0  0  0  0  0  0
   14.7032   -3.7415    0.0000 C   0  0  0  0  0  0  0  0  0  0  0  0
   13.9847   -4.1470    0.0000 C   0  0  0  0  0  0  0  0  0  0  0  0
   13.9775   -4.9692    0.0000 N   0  0  0  0  0  0  0  0  0  0  0  0
   13.2590   -5.3747    0.0000 C   0  0  0  0  0  0  0  0  0  0  0  0
   12.5514   -4.9562    0.0000 C   0  0  0  0  0  0  0  0  0  0  0  0
   12.5587   -4.1342    0.0000 C   0  0  0  0  0  0  0  0  0  0  0  0
   13.2772   -3.7285    0.0000 C   0  0  0  0  0  0  0  0  0  0  0  0
   13.2823   -2.9028    0.0000 C   0  0  0  0  0  0  0  0  0  0  0  0
   12.5748   -2.4843    0.0000 N   0  0  0  0  0  0  0  0  0  0  0  0
   11.8562   -2.8900    0.0000 C   0  0  0  0  0  0  0  0  0  0  0  0
   11.1487   -2.4715    0.0000 C   0  0  0  0  0  0  0  0  0  0  0  0
   10.4302   -2.8771    0.0000 C   0  0  0  0  0  0  0  0  0  0  0  0
    9.7226   -2.4586    0.0000 C   0  0  0  0  0  0  0  0  0  0  0  0
    9.0041   -2.8641    0.0000 N   0  0  0  0  0  0  0  0  0  0  0  0
   14.0009   -2.4973    0.0000 N   0  0  0  0  0  0  0  0  0  0  0  0
  1  2  1  0  0  0  0 
  2  3  1  0  0  0  0 
  2  4  1  0  0  0  0 
  4  5  2  0  0  0  0 
  5  6  1  0  0  0  0 
  6  7  2  0  0  0  0 
  7  8  1  0  0  0  0 
  8  9  2  0  0  0  0 
  4  9  1  0  0  0  0 
  7 10  1  0  0  0  0 
 10 11  2  0  0  0  0 
 11 12  1  0  0  0  0 
 12 13  1  0  0  0  0 
 13 14  2  0  0  0  0 
 14 15  1  0  0  0  0 
 15 16  2  0  0  0  0 
 16 17  1  0  0  0  0 
 12 17  2  0  0  0  0 
 17 18  1  0  0  0  0 
 18 19  1  0  0  0  0 
 19 20  1  0  0  0  0 
 20 21  1  0  0  0  0 
 21 22  1  0  0  0  0 
 22 23  1  0  0  0  0 
 23 24  1  0  0  0  0 
 18 25  2  0  0  0  0 
 10 25  1  0  0  0  0 
M  END

>  <pIC50>
7.72124639905

$$$$

  CDK    9/16/09,10:7

 31 34  0  0  0  0  0  0  0  0999 V2000
    1.5036   -9.1702    0.0000 C   0  0  0  0  0  0  0  0  0  0  0  0
    0.6778   -9.1611    0.0000 C   0  0  0  0  0  0  0  0  0  0  0  0
    0.2762   -8.4396    0.0000 C   0  0  0  0  0  0  0  0  0  0  0  0
   -0.5496   -8.4305    0.0000 C   0  0  0  0  0  0  0  0  0  0  0  0
   -0.9477   -7.7111    0.0000 C   0  0  0  0  0  0  0  0  0  0  0  0
   -0.9694   -9.1358    0.0000 C   0  0  0  0  0  0  0  0  0  0  0  0
   -0.5678   -9.8574    0.0000 C   0  0  0  0  0  0  0  0  0  0  0  0
   -0.9442  -10.8597    0.0000 N   0  0  0  0  0  0  0  0  0  0  0  0
   -1.9585  -11.2099    0.0000 C   0  0  0  0  0  0  0  0  0  0  0  0
   -1.9676  -12.0358    0.0000 N   0  0  0  0  0  0  0  0  0  0  0  0
   -2.6891  -12.4373    0.0000 C   0  0  0  0  0  0  0  0  0  0  0  0
   -2.6981  -13.2632    0.0000 N   0  0  0  0  0  0  0  0  0  0  0  0
   -1.9892  -13.6852    0.0000 C   0  0  0  0  0  0  0  0  0  0  0  0
   -2.0019  -14.5088    0.0000 C   0  0  0  0  0  0  0  0  0  0  0  0
   -1.2929  -14.9307    0.0000 N   0  0  0  0  0  0  0  0  0  0  0  0
   -1.2713  -13.2814    0.0000 C   0  0  0  0  0  0  0  0  0  0  0  0
   -1.2586  -12.4577    0.0000 C   0  0  0  0  0  0  0  0  0  0  0  0
   -0.5407  -12.0539    0.0000 C   0  0  0  0  0  0  0  0  0  0  0  0
    0.1683  -12.4758    0.0000 C   0  0  0  0  0  0  0  0  0  0  0  0
    0.1556  -13.2995    0.0000 C   0  0  0  0  0  0  0  0  0  0  0  0
   -0.5623  -13.7033    0.0000 C   0  0  0  0  0  0  0  0  0  0  0  0
   -3.3945  -12.0176    0.0000 N   0  0  0  0  0  0  0  0  0  0  0  0
   -4.1834  -12.2616    0.0000 C   0  0  0  0  0  0  0  0  0  0  0  0
   -4.6577  -11.5853    0.0000 C   0  0  0  0  0  0  0  0  0  0  0  0
   -4.1652  -10.9264    0.0000 N   0  0  0  0  0  0  0  0  0  0  0  0
   -3.3855  -11.1917    0.0000 C   0  0  0  0  0  0  0  0  0  0  0  0
   -2.6639  -10.7902    0.0000 C   0  0  0  0  0  0  0  0  0  0  0  0
   -2.6549   -9.9643    0.0000 C   0  0  0  0  0  0  0  0  0  0  0  0
   -3.3967   -9.6072    0.0000 O   0  0  0  0  0  0  0  0  0  0  0  0
   -2.0169   -9.4435    0.0000 N   0  0  0  0  0  0  0  0  0  0  0  0
    0.2580   -9.8664    0.0000 C   0  0  0  0  0  0  0  0  0  0  0  0
  1  2  1  0  0  0  0 
  2  3  2  0  0  0  0 
  3  4  1  0  0  0  0 
  4  5  1  0  0  0  0 
  4  6  2  0  0  0  0 
  6  7  1  0  0  0  0 
  7  8  1  0  0  0  0 
  8  9  1  0  0  0  0 
  9 10  1  0  0  0  0 
 10 11  2  0  0  0  0 
 11 12  1  0  0  0  0 
 13 12  1  1  0  0  0 
 13 14  1  0  0  0  0 
 14 15  1  0  0  0  0 
 13 16  1  0  0  0  0 
 16 17  1  0  0  0  0 
 17 18  2  0  0  0  0 
 18 19  1  0  0  0  0 
 19 20  2  0  0  0  0 
 20 21  1  0  0  0  0 
 16 21  2  0  0  0  0 
 11 22  1  0  0  0  0 
 22 23  1  0  0  0  0 
 23 24  2  0  0  0  0 
 24 25  1  0  0  0  0 
 25 26  2  0  0  0  0 
 22 26  1  0  0  0  0 
 26 27  1  0  0  0  0 
  9 27  2  0  0  0  0 
 27 28  1  0  0  0  0 
 28 29  2  0  0  0  0 
 28 30  1  0  0  0  0 
  7 31  2  0  0  0  0 
  2 31  1  0  0  0  0 
M  END

>  <pIC50>
7.67778070527

$$$$

  CDK    9/16/09,10:7

 27 29  0  0  0  0  0  0  0  0999 V2000
    8.9578  -13.4047    0.0000 C   0  0  0  0  0  0  0  0  0  0  0  0
    8.9574  -12.5815    0.0000 C   0  0  0  0  0  0  0  0  0  0  0  0
    8.2423  -12.1700    0.0000 C   0  0  0  0  0  0  0  0  0  0  0  0
    8.2439  -11.3433    0.0000 C   0  0  0  0  0  0  0  0  0  0  0  0
    7.5290  -10.9277    0.0000 N   0  0  0  0  0  0  0  0  0  0  0  0
    6.8123  -11.3429    0.0000 C   0  0  0  0  0  0  0  0  0  0  0  0
    6.8127  -12.1661    0.0000 N   0  0  0  0  0  0  0  0  0  0  0  0
    6.0961  -12.5772    0.0000 C   0  0  0  0  0  0  0  0  0  0  0  0
    5.3810  -12.1657    0.0000 C   0  0  0  0  0  0  0  0  0  0  0  0
    5.3827  -11.3389    0.0000 C   0  0  0  0  0  0  0  0  0  0  0  0
    6.0973  -10.9273    0.0000 N   0  0  0  0  0  0  0  0  0  0  0  0
    4.6718  -10.9232    0.0000 C   0  0  0  0  0  0  0  0  0  0  0  0
    3.9124  -11.2564    0.0000 N   0  0  0  0  0  0  0  0  0  0  0  0
    3.3604  -10.6435    0.0000 C   0  0  0  0  0  0  0  0  0  0  0  0
    2.5390  -10.7329    0.0000 C   0  0  0  0  0  0  0  0  0  0  0  0
    3.7719   -9.9285    0.0000 C   0  0  0  0  0  0  0  0  0  0  0  0
    3.4382   -9.1783    0.0000 C   0  0  0  0  0  0  0  0  0  0  0  0
    2.6177   -9.0893    0.0000 C   0  0  0  0  0  0  0  0  0  0  0  0
    2.2860   -8.3356    0.0000 O   0  0  0  0  0  0  0  0  0  0  0  0
    4.5783  -10.1018    0.0000 S   0  0  0  0  0  0  0  0  0  0  0  0
    8.9585  -10.9317    0.0000 C   0  0  0  0  0  0  0  0  0  0  0  0
    9.6735  -11.3473    0.0000 C   0  0  0  0  0  0  0  0  0  0  0  0
    9.6740  -12.1704    0.0000 C   0  0  0  0  0  0  0  0  0  0  0  0
   10.3902  -10.9321    0.0000 C   0  0  0  0  0  0  0  0  0  0  0  0
    9.9749  -10.2154    0.0000 F   0  0  0  0  0  0  0  0  0  0  0  0
   11.1026  -10.5210    0.0000 F   0  0  0  0  0  0  0  0  0  0  0  0
   10.7977  -11.6467    0.0000 F   0  0  0  0  0  0  0  0  0  0  0  0
  1  2  1  0  0  0  0 
  2  3  1  0  0  0  0 
  3  4  2  0  0  0  0 
  4  5  1  0  0  0  0 
  5  6  1  0  0  0  0 
  6  7  1  0  0  0  0 
  7  8  2  0  0  0  0 
  8  9  1  0  0  0  0 
  9 10  2  0  0  0  0 
 10 11  1  0  0  0  0 
  6 11  2  0  0  0  0 
 10 12  1  0  0  0  0 
 12 13  2  0  0  0  0 
 13 14  1  0  0  0  0 
 14 15  1  0  0  0  0 
 14 16  2  0  0  0  0 
 16 17  1  0  0  0  0 
 17 18  1  0  0  0  0 
 18 19  1  0  0  0  0 
 16 20  1  0  0  0  0 
 12 20  1  0  0  0  0 
  4 21  1  0  0  0  0 
 21 22  2  0  0  0  0 
 22 23  1  0  0  0  0 
  2 23  2  0  0  0  0 
 22 24  1  0  0  0  0 
 24 25  1  0  0  0  0 
 24 26  1  0  0  0  0 
 24 27  1  0  0  0  0 
M  END

>  <pIC50>
7.65757731918

$$$$

  CDK    9/16/09,10:7

 21 22  0  0  0  0  0  0  0  0999 V2000
   11.9108  -13.5884    0.0000 N   0  0  0  0  0  0  0  0  0  0  0  0
   12.6356  -13.2031    0.0000 C   0  0  0  0  0  0  0  0  0  0  0  0
   12.6655  -12.3759    0.0000 C   0  0  0  0  0  0  0  0  0  0  0  0
   13.3904  -11.9908    0.0000 N   0  0  0  0  0  0  0  0  0  0  0  0
   13.4185  -11.1691    0.0000 C   0  0  0  0  0  0  0  0  0  0  0  0
   12.7218  -10.7328    0.0000 N   0  0  0  0  0  0  0  0  0  0  0  0
   12.7499   -9.9113    0.0000 C   0  0  0  0  0  0  0  0  0  0  0  0
   13.4784   -9.5240    0.0000 C   0  0  0  0  0  0  0  0  0  0  0  0
   13.5066   -8.7025    0.0000 C   0  0  0  0  0  0  0  0  0  0  0  0
   12.8080   -8.2625    0.0000 O   0  0  0  0  0  0  0  0  0  0  0  0
   14.2351   -8.3153    0.0000 N   0  0  0  0  0  0  0  0  0  0  0  0
   14.1751   -9.9604    0.0000 C   0  0  0  0  0  0  0  0  0  0  0  0
   14.9036   -9.5733    0.0000 N   0  0  0  0  0  0  0  0  0  0  0  0
   15.6003  -10.0096    0.0000 C   0  0  0  0  0  0  0  0  0  0  0  0
   15.5722  -10.8311    0.0000 C   0  0  0  0  0  0  0  0  0  0  0  0
   16.2708  -11.2712    0.0000 C   0  0  0  0  0  0  0  0  0  0  0  0
   16.9994  -10.8839    0.0000 C   0  0  0  0  0  0  0  0  0  0  0  0
   17.0255  -10.0587    0.0000 C   0  0  0  0  0  0  0  0  0  0  0  0
   17.7541   -9.6716    0.0000 Br  0  0  0  0  0  0  0  0  0  0  0  0
   16.3289   -9.6224    0.0000 C   0  0  0  0  0  0  0  0  0  0  0  0
   14.1470  -10.7820    0.0000 N   0  0  0  0  0  0  0  0  0  0  0  0
  1  2  1  0  0  0  0 
  2  3  1  0  0  0  0 
  3  4  1  0  0  0  0 
  4  5  1  0  0  0  0 
  5  6  2  0  0  0  0 
  6  7  1  0  0  0  0 
  7  8  2  0  0  0  0 
  8  9  1  0  0  0  0 
  9 10  2  0  0  0  0 
  9 11  1  0  0  0  0 
  8 12  1  0  0  0  0 
 12 13  1  0  0  0  0 
 13 14  1  0  0  0  0 
 14 15  2  0  0  0  0 
 15 16  1  0  0  0  0 
 16 17  2  0  0  0  0 
 17 18  1  0  0  0  0 
 18 19  1  0  0  0  0 
 18 20  2  0  0  0  0 
 14 20  1  0  0  0  0 
 12 21  2  0  0  0  0 
  5 21  1  0  0  0  0 
M  END

>  <pIC50>
7.63827216398

$$$$

  CDK    9/16/09,10:7

 27 29  0  0  0  0  0  0  0  0999 V2000
   -4.1517  -16.4321    0.0000 O   0  0  0  0  0  0  0  0  0  0  0  0
   -3.4368  -16.0201    0.0000 C   0  0  0  0  0  0  0  0  0  0  0  0
   -2.7219  -16.4321    0.0000 C   0  0  0  0  0  0  0  0  0  0  0  0
   -2.0112  -16.0201    0.0000 C   0  0  0  0  0  0  0  0  0  0  0  0
   -1.2964  -16.4321    0.0000 O   0  0  0  0  0  0  0  0  0  0  0  0
   -1.2964  -17.2559    0.0000 C   0  0  0  0  0  0  0  0  0  0  0  0
   -0.5815  -17.6678    0.0000 C   0  0  0  0  0  0  0  0  0  0  0  0
   -0.5815  -18.4917    0.0000 C   0  0  0  0  0  0  0  0  0  0  0  0
    0.1292  -18.9036    0.0000 N   0  0  0  0  0  0  0  0  0  0  0  0
    0.8440  -18.4917    0.0000 C   0  0  0  0  0  0  0  0  0  0  0  0
    0.8440  -17.6678    0.0000 N   0  0  0  0  0  0  0  0  0  0  0  0
    1.5589  -17.2559    0.0000 C   0  0  0  0  0  0  0  0  0  0  0  0
    2.2696  -17.6678    0.0000 C   0  0  0  0  0  0  0  0  0  0  0  0
    2.2696  -18.4917    0.0000 C   0  0  0  0  0  0  0  0  0  0  0  0
    1.5589  -18.9036    0.0000 N   0  0  0  0  0  0  0  0  0  0  0  0
    2.9845  -18.9036    0.0000 C   0  0  0  0  0  0  0  0  0  0  0  0
    3.7379  -18.5665    0.0000 N   0  0  0  0  0  0  0  0  0  0  0  0
    4.2902  -19.1779    0.0000 C   0  0  0  0  0  0  0  0  0  0  0  0
    3.8783  -19.8927    0.0000 C   0  0  0  0  0  0  0  0  0  0  0  0
    3.0692  -19.7206    0.0000 S   0  0  0  0  0  0  0  0  0  0  0  0
   -1.2964  -18.9036    0.0000 C   0  0  0  0  0  0  0  0  0  0  0  0
   -2.0112  -18.4917    0.0000 C   0  0  0  0  0  0  0  0  0  0  0  0
   -2.0112  -17.6678    0.0000 C   0  0  0  0  0  0  0  0  0  0  0  0
   -2.7219  -18.9036    0.0000 C   0  0  0  0  0  0  0  0  0  0  0  0
   -2.3100  -19.6143    0.0000 F   0  0  0  0  0  0  0  0  0  0  0  0
   -3.4368  -19.3155    0.0000 F   0  0  0  0  0  0  0  0  0  0  0  0
   -3.1338  -18.1887    0.0000 F   0  0  0  0  0  0  0  0  0  0  0  0
  1  2  1  0  0  0  0 
  2  3  1  0  0  0  0 
  3  4  1  0  0  0  0 
  4  5  1  0  0  0  0 
  5  6  1  0  0  0  0 
  6  7  1  0  0  0  0 
  7  8  2  0  0  0  0 
  8  9  1  0  0  0  0 
  9 10  1  0  0  0  0 
 10 11  2  0  0  0  0 
 11 12  1  0  0  0  0 
 12 13  2  0  0  0  0 
 13 14  1  0  0  0  0 
 14 15  2  0  0  0  0 
 10 15  1  0  0  0  0 
 14 16  1  0  0  0  0 
 16 17  2  0  0  0  0 
 17 18  1  0  0  0  0 
 18 19  2  0  0  0  0 
 19 20  1  0  0  0  0 
 16 20  1  0  0  0  0 
  8 21  1  0  0  0  0 
 21 22  2  0  0  0  0 
 22 23  1  0  0  0  0 
  6 23  2  0  0  0  0 
 22 24  1  0  0  0  0 
 24 25  1  0  0  0  0 
 24 26  1  0  0  0  0 
 24 27  1  0  0  0  0 
M  END

>  <pIC50>
7.58502665203

$$$$

  CDK    5/12/10,14:52

 21 22  0  0  0  0  0  0  0  0999 V2000
    5.7688  -17.1370    0.0000 C   0  0  0  0  0  0  0  0  0  0  0  0
    5.7675  -17.9646    0.0000 C   0  0  0  0  0  0  0  0  0  0  0  0
    6.4805  -18.3776    0.0000 C   0  0  0  0  0  0  0  0  0  0  0  0
    7.1998  -17.9641    0.0000 C   0  0  0  0  0  0  0  0  0  0  0  0
    7.1967  -17.1330    0.0000 C   0  0  0  0  0  0  0  0  0  0  0  0
    6.4786  -16.7243    0.0000 C   0  0  0  0  0  0  0  0  0  0  0  0
    6.4747  -15.8993    0.0000 C   0  0  0  0  0  0  0  0  0  0  0  0
    7.9147  -18.3759    0.0000 N   0  0  0  0  0  0  0  0  0  0  0  0
    7.9155  -19.2009    0.0000 C   0  0  0  0  0  0  0  0  0  0  0  0
    7.2002  -19.6116    0.0000 N   0  0  0  0  0  0  0  0  0  0  0  0
    7.2005  -20.4358    0.0000 C   0  0  0  0  0  0  0  0  0  0  0  0
    7.9159  -20.8485    0.0000 N   0  0  0  0  0  0  0  0  0  0  0  0
    8.6324  -20.4310    0.0000 C   0  0  0  0  0  0  0  0  0  0  0  0
    8.6284  -19.6080    0.0000 C   0  0  0  0  0  0  0  0  0  0  0  0
    9.3409  -19.1921    0.0000 C   0  0  0  0  0  0  0  0  0  0  0  0
   10.0574  -19.6012    0.0000 N   0  0  0  0  0  0  0  0  0  0  0  0
    9.3370  -18.3671    0.0000 O   0  0  0  0  0  0  0  0  0  0  0  0
    6.4863  -20.8486    0.0000 N   0  0  0  0  0  0  0  0  0  0  0  0
    5.7716  -20.4365    0.0000 C   0  0  0  0  0  0  0  0  0  0  0  0
    5.0572  -20.8492    0.0000 C   0  0  0  0  0  0  0  0  0  0  0  0
    4.3426  -20.4370    0.0000 N   0  0  0  0  0  0  0  0  0  0  0  0
  2  3  1  0  0  0  0 
 10 11  1  0  0  0  0 
  5  6  2  0  0  0  0 
 11 12  2  0  0  0  0 
  6  1  1  0  0  0  0 
 12 13  1  0  0  0  0 
  1  2  2  0  0  0  0 
 13 14  2  0  0  0  0 
 14  9  1  0  0  0  0 
  6  7  1  0  0  0  0 
 14 15  1  0  0  0  0 
  3  4  2  0  0  0  0 
 15 16  1  0  0  0  0 
  4  8  1  0  0  0  0 
 15 17  2  0  0  0  0 
 11 18  1  0  0  0  0 
  8  9  1  0  0  0  0 
 18 19  1  0  0  0  0 
  4  5  1  0  0  0  0 
 19 20  1  0  0  0  0 
  9 10  2  0  0  0  0 
 20 21  1  0  0  0  0 
M  END

>  <pIC50>
7.52287874528

$$$$

  CDK    9/16/09,10:7

 30 33  0  0  0  0  0  0  0  0999 V2000
   16.1073  -14.0951    0.0000 C   0  0  0  0  0  0  0  0  0  0  0  0
   15.5967  -14.7429    0.0000 O   0  0  0  0  0  0  0  0  0  0  0  0
   15.9067  -15.5092    0.0000 C   0  0  0  0  0  0  0  0  0  0  0  0
   16.7253  -15.6241    0.0000 C   0  0  0  0  0  0  0  0  0  0  0  0
   17.0316  -16.3924    0.0000 C   0  0  0  0  0  0  0  0  0  0  0  0
   16.5210  -17.0402    0.0000 C   0  0  0  0  0  0  0  0  0  0  0  0
   15.7061  -16.9234    0.0000 C   0  0  0  0  0  0  0  0  0  0  0  0
   15.3998  -16.1551    0.0000 C   0  0  0  0  0  0  0  0  0  0  0  0
   15.3450  -17.6632    0.0000 C   0  0  0  0  0  0  0  0  0  0  0  0
   14.5313  -17.8033    0.0000 C   0  0  0  0  0  0  0  0  0  0  0  0
   14.2455  -18.5806    0.0000 C   0  0  0  0  0  0  0  0  0  0  0  0
   14.7090  -19.2656    0.0000 C   0  0  0  0  0  0  0  0  0  0  0  0
   15.5311  -19.2970    0.0000 O   0  0  0  0  0  0  0  0  0  0  0  0
   14.1985  -19.9134    0.0000 N   0  0  0  0  0  0  0  0  0  0  0  0
   13.4231  -19.6313    0.0000 C   0  0  0  0  0  0  0  0  0  0  0  0
   12.6941  -20.0175    0.0000 C   0  0  0  0  0  0  0  0  0  0  0  0
   11.9945  -19.5780    0.0000 C   0  0  0  0  0  0  0  0  0  0  0  0
   12.0258  -18.7560    0.0000 C   0  0  0  0  0  0  0  0  0  0  0  0
   12.7548  -18.3698    0.0000 C   0  0  0  0  0  0  0  0  0  0  0  0
   13.4525  -18.8056    0.0000 C   0  0  0  0  0  0  0  0  0  0  0  0
   11.3262  -18.3166    0.0000 S   0  0  0  0  0  0  0  0  0  0  0  0
   11.7657  -17.6169    0.0000 O   0  0  0  0  0  0  0  0  0  0  0  0
   10.8867  -19.0162    0.0000 O   0  0  0  0  0  0  0  0  0  0  0  0
   10.6266  -17.8771    0.0000 N   0  0  0  0  0  0  0  0  0  0  0  0
   15.9358  -18.2382    0.0000 C   0  0  0  0  0  0  0  0  0  0  0  0
   16.6648  -17.8520    0.0000 N   0  0  0  0  0  0  0  0  0  0  0  0
   17.4066  -18.2168    0.0000 C   0  0  0  0  0  0  0  0  0  0  0  0
   18.0916  -17.7532    0.0000 C   0  0  0  0  0  0  0  0  0  0  0  0
   18.0331  -16.9304    0.0000 C   0  0  0  0  0  0  0  0  0  0  0  0
   18.7200  -16.4705    0.0000 O   0  0  0  0  0  0  0  0  0  0  0  0
  1  2  1  0  0  0  0 
  2  3  1  0  0  0  0 
  3  4  1  0  0  0  0 
  4  5  2  0  0  0  0 
  5  6  1  0  0  0  0 
  6  7  2  0  0  0  0 
  7  8  1  0  0  0  0 
  3  8  2  0  0  0  0 
  7  9  1  0  0  0  0 
  9 10  1  0  0  0  0 
 10 11  2  0  0  0  0 
 11 12  1  0  0  0  0 
 12 13  2  0  0  0  0 
 12 14  1  0  0  0  0 
 14 15  1  0  0  0  0 
 15 16  1  0  0  0  0 
 16 17  2  0  0  0  0 
 17 18  1  0  0  0  0 
 18 19  2  0  0  0  0 
 19 20  1  0  0  0  0 
 11 20  1  0  0  0  0 
 15 20  2  0  0  0  0 
 18 21  1  0  0  0  0 
 21 22  2  0  0  0  0 
 21 23  2  0  0  0  0 
 21 24  1  0  0  0  0 
  9 25  2  0  0  0  0 
 25 26  1  0  0  0  0 
  6 26  1  0  0  0  0 
 26 27  1  0  0  0  0 
 27 28  1  0  0  0  0 
 28 29  1  0  0  0  0 
 29 30  1  0  0  0  0 
M  END

>  <pIC50>
7.49485002168

$$$$

  CDK    9/16/09,10:7

 24 26  0  0  0  0  0  0  0  0999 V2000
    3.5400  -22.4627    0.0000 C   0  0  0  0  0  0  0  0  0  0  0  0
    2.8397  -22.8990    0.0000 C   0  0  0  0  0  0  0  0  0  0  0  0
    2.8732  -23.7233    0.0000 C   0  0  0  0  0  0  0  0  0  0  0  0
    2.1710  -24.1632    0.0000 C   0  0  0  0  0  0  0  0  0  0  0  0
    2.2044  -24.9875    0.0000 C   0  0  0  0  0  0  0  0  0  0  0  0
    1.4446  -23.7789    0.0000 C   0  0  0  0  0  0  0  0  0  0  0  0
    1.4131  -22.9509    0.0000 C   0  0  0  0  0  0  0  0  0  0  0  0
    0.6868  -22.5667    0.0000 N   0  0  0  0  0  0  0  0  0  0  0  0
   -0.0154  -23.0066    0.0000 C   0  0  0  0  0  0  0  0  0  0  0  0
    0.0179  -23.8309    0.0000 N   0  0  0  0  0  0  0  0  0  0  0  0
   -0.6823  -24.2672    0.0000 C   0  0  0  0  0  0  0  0  0  0  0  0
   -1.4087  -23.8829    0.0000 C   0  0  0  0  0  0  0  0  0  0  0  0
   -1.4421  -23.0586    0.0000 C   0  0  0  0  0  0  0  0  0  0  0  0
   -0.7418  -22.6223    0.0000 N   0  0  0  0  0  0  0  0  0  0  0  0
   -2.1685  -22.6743    0.0000 C   0  0  0  0  0  0  0  0  0  0  0  0
   -2.9107  -23.0362    0.0000 N   0  0  0  0  0  0  0  0  0  0  0  0
   -3.4818  -22.4443    0.0000 C   0  0  0  0  0  0  0  0  0  0  0  0
   -4.2972  -22.5593    0.0000 C   0  0  0  0  0  0  0  0  0  0  0  0
   -3.0957  -21.7143    0.0000 C   0  0  0  0  0  0  0  0  0  0  0  0
   -3.4594  -20.9757    0.0000 C   0  0  0  0  0  0  0  0  0  0  0  0
   -4.2846  -20.9196    0.0000 C   0  0  0  0  0  0  0  0  0  0  0  0
   -4.6464  -20.1772    0.0000 O   0  0  0  0  0  0  0  0  0  0  0  0
   -2.2870  -21.8571    0.0000 S   0  0  0  0  0  0  0  0  0  0  0  0
    2.1134  -22.5147    0.0000 C   0  0  0  0  0  0  0  0  0  0  0  0
  1  2  1  0  0  0  0 
  2  3  2  0  0  0  0 
  3  4  1  0  0  0  0 
  4  5  1  0  0  0  0 
  4  6  2  0  0  0  0 
  6  7  1  0  0  0  0 
  7  8  1  0  0  0  0 
  8  9  1  0  0  0  0 
  9 10  2  0  0  0  0 
 10 11  1  0  0  0  0 
 11 12  2  0  0  0  0 
 12 13  1  0  0  0  0 
 13 14  2  0  0  0  0 
  9 14  1  0  0  0  0 
 13 15  1  0  0  0  0 
 15 16  2  0  0  0  0 
 16 17  1  0  0  0  0 
 17 18  1  0  0  0  0 
 17 19  2  0  0  0  0 
 19 20  1  0  0  0  0 
 20 21  1  0  0  0  0 
 21 22  1  0  0  0  0 
 19 23  1  0  0  0  0 
 15 23  1  0  0  0  0 
  7 24  2  0  0  0  0 
  2 24  1  0  0  0  0 
M  END

>  <pIC50>
7.49485002168

$$$$

  CDK    9/16/09,10:7

 24 26  0  0  0  0  0  0  0  0999 V2000
   12.4274  -21.1467    0.0000 C   0  0  0  0  0  0  0  0  0  0  0  0
   12.4038  -21.9720    0.0000 N   0  0  0  0  0  0  0  0  0  0  0  0
   13.1020  -22.4062    0.0000 C   0  0  0  0  0  0  0  0  0  0  0  0
   11.6765  -22.3615    0.0000 C   0  0  0  0  0  0  0  0  0  0  0  0
   11.6509  -23.1833    0.0000 C   0  0  0  0  0  0  0  0  0  0  0  0
   10.9236  -23.5727    0.0000 C   0  0  0  0  0  0  0  0  0  0  0  0
   10.2255  -23.1385    0.0000 C   0  0  0  0  0  0  0  0  0  0  0  0
   10.2491  -22.3131    0.0000 C   0  0  0  0  0  0  0  0  0  0  0  0
   10.9764  -21.9236    0.0000 C   0  0  0  0  0  0  0  0  0  0  0  0
    9.4981  -23.5279    0.0000 C   0  0  0  0  0  0  0  0  0  0  0  0
    9.4725  -24.3498    0.0000 C   0  0  0  0  0  0  0  0  0  0  0  0
    8.7451  -24.7392    0.0000 C   0  0  0  0  0  0  0  0  0  0  0  0
    8.7196  -25.5609    0.0000 N   0  0  0  0  0  0  0  0  0  0  0  0
    7.9923  -25.9504    0.0000 C   0  0  0  0  0  0  0  0  0  0  0  0
    7.2941  -25.5162    0.0000 C   0  0  0  0  0  0  0  0  0  0  0  0
    7.3197  -24.6944    0.0000 C   0  0  0  0  0  0  0  0  0  0  0  0
    8.0471  -24.3050    0.0000 C   0  0  0  0  0  0  0  0  0  0  0  0
    8.0707  -23.4796    0.0000 C   0  0  0  0  0  0  0  0  0  0  0  0
    7.3726  -23.0454    0.0000 N   0  0  0  0  0  0  0  0  0  0  0  0
    6.6453  -23.4349    0.0000 C   0  0  0  0  0  0  0  0  0  0  0  0
    5.9471  -23.0007    0.0000 C   0  0  0  0  0  0  0  0  0  0  0  0
    5.2198  -23.3902    0.0000 C   0  0  0  0  0  0  0  0  0  0  0  0
    4.5216  -22.9560    0.0000 N   0  0  0  0  0  0  0  0  0  0  0  0
    8.7981  -23.0901    0.0000 N   0  0  0  0  0  0  0  0  0  0  0  0
  1  2  1  0  0  0  0 
  2  3  1  0  0  0  0 
  2  4  1  0  0  0  0 
  4  5  1  0  0  0  0 
  5  6  2  0  0  0  0 
  6  7  1  0  0  0  0 
  7  8  2  0  0  0  0 
  8  9  1  0  0  0  0 
  4  9  2  0  0  0  0 
  7 10  1  0  0  0  0 
 10 11  1  0  0  0  0 
 11 12  2  0  0  0  0 
 12 13  1  0  0  0  0 
 13 14  2  0  0  0  0 
 14 15  1  0  0  0  0 
 15 16  2  0  0  0  0 
 16 17  1  0  0  0  0 
 12 17  1  0  0  0  0 
 17 18  2  0  0  0  0 
 18 19  1  0  0  0  0 
 19 20  1  0  0  0  0 
 20 21  1  0  0  0  0 
 21 22  1  0  0  0  0 
 22 23  1  0  0  0  0 
 18 24  1  0  0  0  0 
 10 24  2  0  0  0  0 
M  END

>  <pIC50>
7.46852108296

$$$$

  CDK    9/16/09,10:7

 23 25  0  0  0  0  0  0  0  0999 V2000
   -3.7369   -4.5096    0.0000 C   0  0  0  0  0  0  0  0  0  0  0  0
   -3.0221   -4.9215    0.0000 S   0  0  0  0  0  0  0  0  0  0  0  0
   -2.3072   -4.5096    0.0000 C   0  0  0  0  0  0  0  0  0  0  0  0
   -2.3072   -3.6817    0.0000 C   0  0  0  0  0  0  0  0  0  0  0  0
   -1.5925   -3.2698    0.0000 C   0  0  0  0  0  0  0  0  0  0  0  0
   -0.8777   -3.6817    0.0000 C   0  0  0  0  0  0  0  0  0  0  0  0
   -0.8777   -4.5096    0.0000 C   0  0  0  0  0  0  0  0  0  0  0  0
   -1.5925   -4.9215    0.0000 C   0  0  0  0  0  0  0  0  0  0  0  0
   -0.1588   -3.2698    0.0000 C   0  0  0  0  0  0  0  0  0  0  0  0
   -0.1588   -2.4418    0.0000 C   0  0  0  0  0  0  0  0  0  0  0  0
    0.5561   -2.0300    0.0000 C   0  0  0  0  0  0  0  0  0  0  0  0
    0.5561   -1.2021    0.0000 N   0  0  0  0  0  0  0  0  0  0  0  0
    1.2709   -0.7902    0.0000 C   0  0  0  0  0  0  0  0  0  0  0  0
    1.9856   -1.2021    0.0000 C   0  0  0  0  0  0  0  0  0  0  0  0
    1.9856   -2.0300    0.0000 C   0  0  0  0  0  0  0  0  0  0  0  0
    1.2709   -2.4418    0.0000 C   0  0  0  0  0  0  0  0  0  0  0  0
    1.2709   -3.2698    0.0000 C   0  0  0  0  0  0  0  0  0  0  0  0
    1.9856   -3.6817    0.0000 N   0  0  0  0  0  0  0  0  0  0  0  0
    2.7004   -3.2698    0.0000 C   0  0  0  0  0  0  0  0  0  0  0  0
    3.4194   -3.6817    0.0000 C   0  0  0  0  0  0  0  0  0  0  0  0
    4.1342   -3.2698    0.0000 C   0  0  0  0  0  0  0  0  0  0  0  0
    4.8490   -3.6817    0.0000 N   0  0  0  0  0  0  0  0  0  0  0  0
    0.5561   -3.6817    0.0000 N   0  0  0  0  0  0  0  0  0  0  0  0
  1  2  1  0  0  0  0 
  2  3  1  0  0  0  0 
  3  4  2  0  0  0  0 
  4  5  1  0  0  0  0 
  5  6  2  0  0  0  0 
  6  7  1  0  0  0  0 
  7  8  2  0  0  0  0 
  3  8  1  0  0  0  0 
  6  9  1  0  0  0  0 
  9 10  1  0  0  0  0 
 10 11  2  0  0  0  0 
 11 12  1  0  0  0  0 
 12 13  2  0  0  0  0 
 13 14  1  0  0  0  0 
 14 15  2  0  0  0  0 
 15 16  1  0  0  0  0 
 11 16  1  0  0  0  0 
 16 17  2  0  0  0  0 
 17 18  1  0  0  0  0 
 18 19  1  0  0  0  0 
 19 20  1  0  0  0  0 
 20 21  1  0  0  0  0 
 21 22  1  0  0  0  0 
 17 23  1  0  0  0  0 
  9 23  2  0  0  0  0 
M  END

>  <pIC50>
7.46852108296

$$$$

  CDK    9/16/09,10:7

 24 25  0  0  0  0  0  0  0  0999 V2000
    6.0174   -6.0275    0.0000 N   0  0  0  0  0  0  0  0  0  0  0  0
    6.7348   -5.6265    0.0000 C   0  0  0  0  0  0  0  0  0  0  0  0
    6.7492   -4.8016    0.0000 C   0  0  0  0  0  0  0  0  0  0  0  0
    7.4666   -4.4007    0.0000 N   0  0  0  0  0  0  0  0  0  0  0  0
    7.4811   -3.5758    0.0000 C   0  0  0  0  0  0  0  0  0  0  0  0
    6.7689   -3.1521    0.0000 N   0  0  0  0  0  0  0  0  0  0  0  0
    6.7833   -2.3273    0.0000 C   0  0  0  0  0  0  0  0  0  0  0  0
    7.5007   -1.9263    0.0000 C   0  0  0  0  0  0  0  0  0  0  0  0
    7.5151   -1.1014    0.0000 C   0  0  0  0  0  0  0  0  0  0  0  0
    8.2324   -0.7006    0.0000 O   0  0  0  0  0  0  0  0  0  0  0  0
    6.8049   -0.6814    0.0000 N   0  0  0  0  0  0  0  0  0  0  0  0
    8.2108   -2.3463    0.0000 C   0  0  0  0  0  0  0  0  0  0  0  0
    8.9282   -1.9455    0.0000 N   0  0  0  0  0  0  0  0  0  0  0  0
    9.6404   -2.3690    0.0000 C   0  0  0  0  0  0  0  0  0  0  0  0
    9.6260   -3.1940    0.0000 C   0  0  0  0  0  0  0  0  0  0  0  0
   10.3361   -3.6139    0.0000 C   0  0  0  0  0  0  0  0  0  0  0  0
   11.0535   -3.2131    0.0000 C   0  0  0  0  0  0  0  0  0  0  0  0
   11.0679   -2.3881    0.0000 C   0  0  0  0  0  0  0  0  0  0  0  0
   10.3577   -1.9682    0.0000 C   0  0  0  0  0  0  0  0  0  0  0  0
   11.7852   -1.9872    0.0000 C   0  0  0  0  0  0  0  0  0  0  0  0
   12.1861   -2.7046    0.0000 F   0  0  0  0  0  0  0  0  0  0  0  0
   11.3823   -1.2662    0.0000 F   0  0  0  0  0  0  0  0  0  0  0  0
   12.5063   -1.5843    0.0000 F   0  0  0  0  0  0  0  0  0  0  0  0
    8.1984   -3.1749    0.0000 N   0  0  0  0  0  0  0  0  0  0  0  0
  1  2  1  0  0  0  0 
  2  3  1  0  0  0  0 
  3  4  1  0  0  0  0 
  4  5  1  0  0  0  0 
  5  6  1  0  0  0  0 
  6  7  2  0  0  0  0 
  7  8  1  0  0  0  0 
  8  9  1  0  0  0  0 
  9 10  2  0  0  0  0 
  9 11  1  0  0  0  0 
  8 12  2  0  0  0  0 
 12 13  1  0  0  0  0 
 13 14  1  0  0  0  0 
 14 15  1  0  0  0  0 
 15 16  2  0  0  0  0 
 16 17  1  0  0  0  0 
 17 18  2  0  0  0  0 
 18 19  1  0  0  0  0 
 14 19  2  0  0  0  0 
 18 20  1  0  0  0  0 
 20 21  1  0  0  0  0 
 20 22  1  0  0  0  0 
 20 23  1  0  0  0  0 
 12 24  1  0  0  0  0 
  5 24  2  0  0  0  0 
M  END

>  <pIC50>
7.38721614328

$$$$

  CDK    9/16/09,10:7

 25 27  0  0  0  0  0  0  0  0999 V2000
    3.0223   -7.2321    0.0000 C   0  0  0  0  0  0  0  0  0  0  0  0
    2.2997   -6.8345    0.0000 N   0  0  0  0  0  0  0  0  0  0  0  0
    2.2861   -6.0095    0.0000 C   0  0  0  0  0  0  0  0  0  0  0  0
    1.5908   -7.2576    0.0000 C   0  0  0  0  0  0  0  0  0  0  0  0
    1.6044   -8.0825    0.0000 C   0  0  0  0  0  0  0  0  0  0  0  0
    0.8995   -8.5097    0.0000 C   0  0  0  0  0  0  0  0  0  0  0  0
    0.1769   -8.1079    0.0000 C   0  0  0  0  0  0  0  0  0  0  0  0
    0.1634   -7.2830    0.0000 C   0  0  0  0  0  0  0  0  0  0  0  0
    0.8682   -6.8599    0.0000 C   0  0  0  0  0  0  0  0  0  0  0  0
   -0.5321   -8.5352    0.0000 C   0  0  0  0  0  0  0  0  0  0  0  0
   -0.5143   -9.3601    0.0000 C   0  0  0  0  0  0  0  0  0  0  0  0
   -1.2232   -9.7831    0.0000 C   0  0  0  0  0  0  0  0  0  0  0  0
   -1.2097  -10.6080    0.0000 N   0  0  0  0  0  0  0  0  0  0  0  0
   -1.9145  -11.0353    0.0000 C   0  0  0  0  0  0  0  0  0  0  0  0
   -2.6371  -10.6335    0.0000 C   0  0  0  0  0  0  0  0  0  0  0  0
   -2.6507   -9.8086    0.0000 C   0  0  0  0  0  0  0  0  0  0  0  0
   -1.9458   -9.3855    0.0000 C   0  0  0  0  0  0  0  0  0  0  0  0
   -1.9594   -8.5606    0.0000 C   0  0  0  0  0  0  0  0  0  0  0  0
   -2.6820   -8.1588    0.0000 N   0  0  0  0  0  0  0  0  0  0  0  0
   -3.3868   -8.5860    0.0000 C   0  0  0  0  0  0  0  0  0  0  0  0
   -4.1093   -8.1843    0.0000 C   0  0  0  0  0  0  0  0  0  0  0  0
   -4.1229   -7.3594    0.0000 O   0  0  0  0  0  0  0  0  0  0  0  0
   -4.8183   -8.6073    0.0000 C   0  0  0  0  0  0  0  0  0  0  0  0
   -4.8072   -9.4362    0.0000 N   0  0  0  0  0  0  0  0  0  0  0  0
   -1.2504   -8.1334    0.0000 N   0  0  0  0  0  0  0  0  0  0  0  0
  1  2  1  0  0  0  0 
  2  3  1  0  0  0  0 
  2  4  1  0  0  0  0 
  4  5  1  0  0  0  0 
  5  6  2  0  0  0  0 
  6  7  1  0  0  0  0 
  7  8  2  0  0  0  0 
  8  9  1  0  0  0  0 
  4  9  2  0  0  0  0 
  7 10  1  0  0  0  0 
 10 11  2  0  0  0  0 
 11 12  1  0  0  0  0 
 12 13  1  0  0  0  0 
 13 14  2  0  0  0  0 
 14 15  1  0  0  0  0 
 15 16  2  0  0  0  0 
 16 17  1  0  0  0  0 
 12 17  2  0  0  0  0 
 17 18  1  0  0  0  0 
 18 19  1  0  0  0  0 
 19 20  1  0  0  0  0 
 20 21  1  0  0  0  0 
 21 22  1  0  0  0  0 
 21 23  1  0  0  0  0 
 23 24  1  0  0  0  0 
 18 25  2  0  0  0  0 
 10 25  1  0  0  0  0 
M  END

>  <pIC50>
7.36653154442

$$$$

  CDK    9/16/09,10:7

 26 27  0  0  0  0  0  0  0  0999 V2000
   11.4670   -6.9621    0.0000 N   0  0  0  0  0  0  0  0  0  0  0  0
   10.7506   -7.3767    0.0000 C   0  0  0  0  0  0  0  0  0  0  0  0
   10.0341   -6.9621    0.0000 C   0  0  0  0  0  0  0  0  0  0  0  0
    9.3260   -7.3767    0.0000 C   0  0  0  0  0  0  0  0  0  0  0  0
    8.6094   -6.9621    0.0000 C   0  0  0  0  0  0  0  0  0  0  0  0
    7.8972   -7.3767    0.0000 N   0  0  0  0  0  0  0  0  0  0  0  0
    7.8972   -8.2017    0.0000 C   0  0  0  0  0  0  0  0  0  0  0  0
    8.6094   -8.6122    0.0000 N   0  0  0  0  0  0  0  0  0  0  0  0
    8.6094   -9.4373    0.0000 C   0  0  0  0  0  0  0  0  0  0  0  0
    7.8972   -9.8519    0.0000 C   0  0  0  0  0  0  0  0  0  0  0  0
    7.8972  -10.6769    0.0000 C   0  0  0  0  0  0  0  0  0  0  0  0
    7.1806  -11.0874    0.0000 O   0  0  0  0  0  0  0  0  0  0  0  0
    8.6094  -11.0874    0.0000 N   0  0  0  0  0  0  0  0  0  0  0  0
    7.1806   -9.4373    0.0000 C   0  0  0  0  0  0  0  0  0  0  0  0
    6.4642   -9.8519    0.0000 N   0  0  0  0  0  0  0  0  0  0  0  0
    5.7477   -9.4373    0.0000 C   0  0  0  0  0  0  0  0  0  0  0  0
    5.7477   -8.6122    0.0000 C   0  0  0  0  0  0  0  0  0  0  0  0
    5.0354   -8.2017    0.0000 C   0  0  0  0  0  0  0  0  0  0  0  0
    4.3230   -8.6122    0.0000 C   0  0  0  0  0  0  0  0  0  0  0  0
    4.3230   -9.4373    0.0000 C   0  0  0  0  0  0  0  0  0  0  0  0
    5.0354   -9.8519    0.0000 C   0  0  0  0  0  0  0  0  0  0  0  0
    3.6108   -9.8519    0.0000 C   0  0  0  0  0  0  0  0  0  0  0  0
    3.1961   -9.1396    0.0000 F   0  0  0  0  0  0  0  0  0  0  0  0
    4.0212  -10.5684    0.0000 F   0  0  0  0  0  0  0  0  0  0  0  0
    2.8943  -10.2624    0.0000 F   0  0  0  0  0  0  0  0  0  0  0  0
    7.1806   -8.6122    0.0000 N   0  0  0  0  0  0  0  0  0  0  0  0
  1  2  1  0  0  0  0 
  2  3  1  0  0  0  0 
  3  4  1  0  0  0  0 
  4  5  1  0  0  0  0 
  5  6  1  0  0  0  0 
  6  7  1  0  0  0  0 
  7  8  2  0  0  0  0 
  8  9  1  0  0  0  0 
  9 10  2  0  0  0  0 
 10 11  1  0  0  0  0 
 11 12  2  0  0  0  0 
 11 13  1  0  0  0  0 
 10 14  1  0  0  0  0 
 14 15  1  0  0  0  0 
 15 16  1  0  0  0  0 
 16 17  1  0  0  0  0 
 17 18  2  0  0  0  0 
 18 19  1  0  0  0  0 
 19 20  2  0  0  0  0 
 20 21  1  0  0  0  0 
 16 21  2  0  0  0  0 
 20 22  1  0  0  0  0 
 22 23  1  0  0  0  0 
 22 24  1  0  0  0  0 
 22 25  1  0  0  0  0 
 14 26  2  0  0  0  0 
  7 26  1  0  0  0  0 
M  END

>  <pIC50>
7.32790214206

$$$$

  CDK    9/16/09,10:7

 22 23  0  0  0  0  0  0  0  0999 V2000
   16.3850  -10.7052    0.0000 C   0  0  0  0  0  0  0  0  0  0  0  0
   15.6673  -10.2958    0.0000 C   0  0  0  0  0  0  0  0  0  0  0  0
   15.6616   -9.4696    0.0000 C   0  0  0  0  0  0  0  0  0  0  0  0
   16.3735   -9.0528    0.0000 C   0  0  0  0  0  0  0  0  0  0  0  0
   16.3699   -8.2302    0.0000 C   0  0  0  0  0  0  0  0  0  0  0  0
   15.6523   -7.8208    0.0000 C   0  0  0  0  0  0  0  0  0  0  0  0
   14.9403   -8.2376    0.0000 C   0  0  0  0  0  0  0  0  0  0  0  0
   14.2227   -7.8283    0.0000 N   0  0  0  0  0  0  0  0  0  0  0  0
   13.5107   -8.2451    0.0000 C   0  0  0  0  0  0  0  0  0  0  0  0
   13.5164   -9.0713    0.0000 N   0  0  0  0  0  0  0  0  0  0  0  0
   12.8045   -9.4881    0.0000 C   0  0  0  0  0  0  0  0  0  0  0  0
   12.8102  -10.3143    0.0000 N   0  0  0  0  0  0  0  0  0  0  0  0
   12.0982  -10.7311    0.0000 C   0  0  0  0  0  0  0  0  0  0  0  0
   12.1018  -11.5537    0.0000 C   0  0  0  0  0  0  0  0  0  0  0  0
   11.3898  -11.9706    0.0000 N   0  0  0  0  0  0  0  0  0  0  0  0
   12.0868   -9.0788    0.0000 N   0  0  0  0  0  0  0  0  0  0  0  0
   12.0832   -8.2562    0.0000 C   0  0  0  0  0  0  0  0  0  0  0  0
   12.7951   -7.8393    0.0000 C   0  0  0  0  0  0  0  0  0  0  0  0
   12.7894   -7.0132    0.0000 C   0  0  0  0  0  0  0  0  0  0  0  0
   13.5014   -6.5963    0.0000 O   0  0  0  0  0  0  0  0  0  0  0  0
   12.0718   -6.6038    0.0000 N   0  0  0  0  0  0  0  0  0  0  0  0
   14.9460   -9.0638    0.0000 C   0  0  0  0  0  0  0  0  0  0  0  0
  1  2  1  0  0  0  0 
  2  3  1  0  0  0  0 
  3  4  1  0  0  0  0 
  4  5  2  0  0  0  0 
  5  6  1  0  0  0  0 
  6  7  2  0  0  0  0 
  7  8  1  0  0  0  0 
  8  9  1  0  0  0  0 
  9 10  2  0  0  0  0 
 10 11  1  0  0  0  0 
 11 12  1  0  0  0  0 
 12 13  1  0  0  0  0 
 13 14  1  0  0  0  0 
 14 15  1  0  0  0  0 
 11 16  2  0  0  0  0 
 16 17  1  0  0  0  0 
 17 18  2  0  0  0  0 
  9 18  1  0  0  0  0 
 18 19  1  0  0  0  0 
 19 20  2  0  0  0  0 
 19 21  1  0  0  0  0 
  7 22  1  0  0  0  0 
  3 22  2  0  0  0  0 
M  END

>  <pIC50>
7.2757241304

$$$$

  CDK    9/16/09,10:7

 21 23  0  0  0  0  0  0  0  0999 V2000
   -5.3649  -14.1971    0.0000 C   0  0  0  0  0  0  0  0  0  0  0  0
   -4.6532  -13.7846    0.0000 C   0  0  0  0  0  0  0  0  0  0  0  0
   -4.6532  -12.9596    0.0000 C   0  0  0  0  0  0  0  0  0  0  0  0
   -3.9373  -12.5471    0.0000 C   0  0  0  0  0  0  0  0  0  0  0  0
   -3.9373  -11.7221    0.0000 C   0  0  0  0  0  0  0  0  0  0  0  0
   -3.2215  -12.9596    0.0000 C   0  0  0  0  0  0  0  0  0  0  0  0
   -3.2215  -13.7846    0.0000 C   0  0  0  0  0  0  0  0  0  0  0  0
   -2.5056  -14.1971    0.0000 N   0  0  0  0  0  0  0  0  0  0  0  0
   -1.7939  -13.7846    0.0000 C   0  0  0  0  0  0  0  0  0  0  0  0
   -1.7939  -12.9596    0.0000 N   0  0  0  0  0  0  0  0  0  0  0  0
   -1.0780  -12.5471    0.0000 C   0  0  0  0  0  0  0  0  0  0  0  0
   -0.3663  -12.9596    0.0000 C   0  0  0  0  0  0  0  0  0  0  0  0
   -0.3663  -13.7846    0.0000 C   0  0  0  0  0  0  0  0  0  0  0  0
   -1.0780  -14.1971    0.0000 N   0  0  0  0  0  0  0  0  0  0  0  0
    0.3495  -14.1971    0.0000 C   0  0  0  0  0  0  0  0  0  0  0  0
    1.1040  -13.8595    0.0000 N   0  0  0  0  0  0  0  0  0  0  0  0
    1.6571  -14.4718    0.0000 C   0  0  0  0  0  0  0  0  0  0  0  0
    2.4752  -14.3870    0.0000 C   0  0  0  0  0  0  0  0  0  0  0  0
    1.2446  -15.1877    0.0000 C   0  0  0  0  0  0  0  0  0  0  0  0
    0.4344  -15.0153    0.0000 S   0  0  0  0  0  0  0  0  0  0  0  0
   -3.9373  -14.1971    0.0000 C   0  0  0  0  0  0  0  0  0  0  0  0
  1  2  1  0  0  0  0 
  2  3  1  0  0  0  0 
  3  4  2  0  0  0  0 
  4  5  1  0  0  0  0 
  4  6  1  0  0  0  0 
  6  7  2  0  0  0  0 
  7  8  1  0  0  0  0 
  8  9  1  0  0  0  0 
  9 10  2  0  0  0  0 
 10 11  1  0  0  0  0 
 11 12  2  0  0  0  0 
 12 13  1  0  0  0  0 
 13 14  2  0  0  0  0 
  9 14  1  0  0  0  0 
 13 15  1  0  0  0  0 
 15 16  2  0  0  0  0 
 16 17  1  0  0  0  0 
 17 18  1  0  0  0  0 
 17 19  2  0  0  0  0 
 19 20  1  0  0  0  0 
 15 20  1  0  0  0  0 
  7 21  1  0  0  0  0 
  2 21  2  0  0  0  0 
M  END

>  <pIC50>
7.25181197299

$$$$

  CDK    9/16/09,10:7

 22 24  0  0  0  0  0  0  0  0999 V2000
    2.6813  -16.4412    0.0000 C   0  0  0  0  0  0  0  0  0  0  0  0
    3.3936  -16.0266    0.0000 C   0  0  0  0  0  0  0  0  0  0  0  0
    3.3936  -15.2016    0.0000 C   0  0  0  0  0  0  0  0  0  0  0  0
    4.1101  -14.7911    0.0000 C   0  0  0  0  0  0  0  0  0  0  0  0
    4.8266  -15.2016    0.0000 C   0  0  0  0  0  0  0  0  0  0  0  0
    4.8266  -16.0266    0.0000 C   0  0  0  0  0  0  0  0  0  0  0  0
    4.1101  -16.4412    0.0000 C   0  0  0  0  0  0  0  0  0  0  0  0
    5.5431  -14.7911    0.0000 C   0  0  0  0  0  0  0  0  0  0  0  0
    5.5431  -13.9619    0.0000 C   0  0  0  0  0  0  0  0  0  0  0  0
    6.2554  -13.5514    0.0000 C   0  0  0  0  0  0  0  0  0  0  0  0
    6.2554  -12.7264    0.0000 N   0  0  0  0  0  0  0  0  0  0  0  0
    6.9677  -12.3117    0.0000 C   0  0  0  0  0  0  0  0  0  0  0  0
    7.6800  -12.7264    0.0000 C   0  0  0  0  0  0  0  0  0  0  0  0
    7.6800  -13.5514    0.0000 C   0  0  0  0  0  0  0  0  0  0  0  0
    6.9677  -13.9619    0.0000 C   0  0  0  0  0  0  0  0  0  0  0  0
    6.9677  -14.7911    0.0000 C   0  0  0  0  0  0  0  0  0  0  0  0
    7.6800  -15.2016    0.0000 N   0  0  0  0  0  0  0  0  0  0  0  0
    8.3965  -14.7911    0.0000 C   0  0  0  0  0  0  0  0  0  0  0  0
    9.1130  -15.2016    0.0000 C   0  0  0  0  0  0  0  0  0  0  0  0
    9.8295  -14.7911    0.0000 C   0  0  0  0  0  0  0  0  0  0  0  0
   10.5418  -15.2016    0.0000 N   0  0  0  0  0  0  0  0  0  0  0  0
    6.2554  -15.2016    0.0000 N   0  0  0  0  0  0  0  0  0  0  0  0
  1  2  1  0  0  0  0 
  2  3  1  0  0  0  0 
  3  4  2  0  0  0  0 
  4  5  1  0  0  0  0 
  5  6  2  0  0  0  0 
  6  7  1  0  0  0  0 
  2  7  2  0  0  0  0 
  5  8  1  0  0  0  0 
  8  9  1  0  0  0  0 
  9 10  2  0  0  0  0 
 10 11  1  0  0  0  0 
 11 12  2  0  0  0  0 
 12 13  1  0  0  0  0 
 13 14  2  0  0  0  0 
 14 15  1  0  0  0  0 
 10 15  1  0  0  0  0 
 15 16  2  0  0  0  0 
 16 17  1  0  0  0  0 
 17 18  1  0  0  0  0 
 18 19  1  0  0  0  0 
 19 20  1  0  0  0  0 
 20 21  1  0  0  0  0 
 16 22  1  0  0  0  0 
  8 22  2  0  0  0  0 
M  END

>  <pIC50>
7.20065945055

$$$$

  CDK    9/16/09,10:7

 22 23  0  0  0  0  0  0  0  0999 V2000
   16.5401  -16.5893    0.0000 C   0  0  0  0  0  0  0  0  0  0  0  0
   15.8344  -16.1618    0.0000 O   0  0  0  0  0  0  0  0  0  0  0  0
   15.8524  -15.3405    0.0000 C   0  0  0  0  0  0  0  0  0  0  0  0
   16.5741  -14.9431    0.0000 C   0  0  0  0  0  0  0  0  0  0  0  0
   16.5902  -14.1182    0.0000 C   0  0  0  0  0  0  0  0  0  0  0  0
   15.8845  -13.6907    0.0000 C   0  0  0  0  0  0  0  0  0  0  0  0
   15.1628  -14.0881    0.0000 C   0  0  0  0  0  0  0  0  0  0  0  0
   14.4572  -13.6606    0.0000 N   0  0  0  0  0  0  0  0  0  0  0  0
   13.7355  -14.0580    0.0000 C   0  0  0  0  0  0  0  0  0  0  0  0
   13.7195  -14.8829    0.0000 N   0  0  0  0  0  0  0  0  0  0  0  0
   12.9978  -15.2803    0.0000 C   0  0  0  0  0  0  0  0  0  0  0  0
   12.9818  -16.1052    0.0000 N   0  0  0  0  0  0  0  0  0  0  0  0
   12.2601  -16.5026    0.0000 C   0  0  0  0  0  0  0  0  0  0  0  0
   12.2442  -17.3274    0.0000 C   0  0  0  0  0  0  0  0  0  0  0  0
   11.5225  -17.7249    0.0000 N   0  0  0  0  0  0  0  0  0  0  0  0
   12.2922  -14.8528    0.0000 N   0  0  0  0  0  0  0  0  0  0  0  0
   12.3102  -14.0316    0.0000 C   0  0  0  0  0  0  0  0  0  0  0  0
   13.0319  -13.6341    0.0000 C   0  0  0  0  0  0  0  0  0  0  0  0
   13.0478  -12.8093    0.0000 C   0  0  0  0  0  0  0  0  0  0  0  0
   13.7695  -12.4118    0.0000 O   0  0  0  0  0  0  0  0  0  0  0  0
   12.3442  -12.3854    0.0000 N   0  0  0  0  0  0  0  0  0  0  0  0
   15.1468  -14.9130    0.0000 C   0  0  0  0  0  0  0  0  0  0  0  0
  1  2  1  0  0  0  0 
  2  3  1  0  0  0  0 
  3  4  1  0  0  0  0 
  4  5  2  0  0  0  0 
  5  6  1  0  0  0  0 
  6  7  2  0  0  0  0 
  7  8  1  0  0  0  0 
  8  9  1  0  0  0  0 
  9 10  2  0  0  0  0 
 10 11  1  0  0  0  0 
 11 12  1  0  0  0  0 
 12 13  1  0  0  0  0 
 13 14  1  0  0  0  0 
 14 15  1  0  0  0  0 
 11 16  2  0  0  0  0 
 16 17  1  0  0  0  0 
 17 18  2  0  0  0  0 
  9 18  1  0  0  0  0 
 18 19  1  0  0  0  0 
 19 20  2  0  0  0  0 
 19 21  1  0  0  0  0 
  7 22  1  0  0  0  0 
  3 22  2  0  0  0  0 
M  END

>  <pIC50>
7.18045606446

$$$$

  CDK    9/16/09,10:7

 28 30  0  0  0  0  0  0  0  0999 V2000
    2.6128  -16.7524    0.0000 C   0  0  0  0  0  0  0  0  0  0  0  0
    3.3312  -17.1655    0.0000 N   0  0  0  0  0  0  0  0  0  0  0  0
    4.0424  -16.7540    0.0000 C   0  0  0  0  0  0  0  0  0  0  0  0
    3.3289  -17.9905    0.0000 C   0  0  0  0  0  0  0  0  0  0  0  0
    2.6175  -18.4018    0.0000 C   0  0  0  0  0  0  0  0  0  0  0  0
    2.6152  -19.2268    0.0000 N   0  0  0  0  0  0  0  0  0  0  0  0
    3.3315  -19.6363    0.0000 C   0  0  0  0  0  0  0  0  0  0  0  0
    1.9039  -19.6382    0.0000 C   0  0  0  0  0  0  0  0  0  0  0  0
    1.9016  -20.4632    0.0000 C   0  0  0  0  0  0  0  0  0  0  0  0
    1.1903  -20.8745    0.0000 C   0  0  0  0  0  0  0  0  0  0  0  0
    0.4741  -20.4651    0.0000 C   0  0  0  0  0  0  0  0  0  0  0  0
    0.4764  -19.6401    0.0000 C   0  0  0  0  0  0  0  0  0  0  0  0
    1.1877  -19.2287    0.0000 C   0  0  0  0  0  0  0  0  0  0  0  0
   -0.2373  -20.8765    0.0000 C   0  0  0  0  0  0  0  0  0  0  0  0
   -0.2395  -21.7015    0.0000 C   0  0  0  0  0  0  0  0  0  0  0  0
   -0.9508  -22.1129    0.0000 C   0  0  0  0  0  0  0  0  0  0  0  0
   -0.9531  -22.9379    0.0000 N   0  0  0  0  0  0  0  0  0  0  0  0
   -1.6644  -23.3492    0.0000 C   0  0  0  0  0  0  0  0  0  0  0  0
   -2.3807  -22.9398    0.0000 C   0  0  0  0  0  0  0  0  0  0  0  0
   -2.3784  -22.1148    0.0000 C   0  0  0  0  0  0  0  0  0  0  0  0
   -1.6670  -21.7034    0.0000 C   0  0  0  0  0  0  0  0  0  0  0  0
   -1.6647  -20.8784    0.0000 C   0  0  0  0  0  0  0  0  0  0  0  0
   -2.3810  -20.4689    0.0000 N   0  0  0  0  0  0  0  0  0  0  0  0
   -3.0923  -20.8803    0.0000 C   0  0  0  0  0  0  0  0  0  0  0  0
   -3.8105  -20.4673    0.0000 C   0  0  0  0  0  0  0  0  0  0  0  0
   -4.5219  -20.8787    0.0000 C   0  0  0  0  0  0  0  0  0  0  0  0
   -5.2381  -20.4692    0.0000 N   0  0  0  0  0  0  0  0  0  0  0  0
   -0.9534  -20.4671    0.0000 N   0  0  0  0  0  0  0  0  0  0  0  0
  1  2  1  0  0  0  0 
  2  3  1  0  0  0  0 
  2  4  1  0  0  0  0 
  4  5  1  0  0  0  0 
  5  6  1  0  0  0  0 
  6  7  1  0  0  0  0 
  6  8  1  0  0  0  0 
  8  9  1  0  0  0  0 
  9 10  2  0  0  0  0 
 10 11  1  0  0  0  0 
 11 12  2  0  0  0  0 
 12 13  1  0  0  0  0 
  8 13  2  0  0  0  0 
 11 14  1  0  0  0  0 
 14 15  1  0  0  0  0 
 15 16  2  0  0  0  0 
 16 17  1  0  0  0  0 
 17 18  2  0  0  0  0 
 18 19  1  0  0  0  0 
 19 20  2  0  0  0  0 
 20 21  1  0  0  0  0 
 16 21  1  0  0  0  0 
 21 22  2  0  0  0  0 
 22 23  1  0  0  0  0 
 23 24  1  0  0  0  0 
 24 25  1  0  0  0  0 
 25 26  1  0  0  0  0 
 26 27  1  0  0  0  0 
 22 28  1  0  0  0  0 
 14 28  2  0  0  0  0 
M  END

>  <pIC50>
7.14874165128

$$$$

  CDK    9/16/09,10:7

 25 27  0  0  0  0  0  0  0  0999 V2000
   12.6676  -18.6423    0.0000 C   0  0  0  0  0  0  0  0  0  0  0  0
   12.6602  -19.4680    0.0000 N   0  0  0  0  0  0  0  0  0  0  0  0
   13.3667  -19.8884    0.0000 C   0  0  0  0  0  0  0  0  0  0  0  0
   11.9405  -19.8716    0.0000 C   0  0  0  0  0  0  0  0  0  0  0  0
   11.9311  -20.6937    0.0000 C   0  0  0  0  0  0  0  0  0  0  0  0
   11.2116  -21.0973    0.0000 C   0  0  0  0  0  0  0  0  0  0  0  0
   10.5051  -20.6769    0.0000 C   0  0  0  0  0  0  0  0  0  0  0  0
   10.5125  -19.8512    0.0000 C   0  0  0  0  0  0  0  0  0  0  0  0
   11.2321  -19.4476    0.0000 C   0  0  0  0  0  0  0  0  0  0  0  0
    9.7854  -21.0806    0.0000 C   0  0  0  0  0  0  0  0  0  0  0  0
    9.7760  -21.9026    0.0000 C   0  0  0  0  0  0  0  0  0  0  0  0
    9.0563  -22.3063    0.0000 C   0  0  0  0  0  0  0  0  0  0  0  0
    9.0469  -23.1284    0.0000 N   0  0  0  0  0  0  0  0  0  0  0  0
    8.3273  -23.5320    0.0000 C   0  0  0  0  0  0  0  0  0  0  0  0
    7.6208  -23.1116    0.0000 C   0  0  0  0  0  0  0  0  0  0  0  0
    7.6303  -22.2895    0.0000 C   0  0  0  0  0  0  0  0  0  0  0  0
    8.3498  -21.8859    0.0000 C   0  0  0  0  0  0  0  0  0  0  0  0
    8.3573  -21.0602    0.0000 C   0  0  0  0  0  0  0  0  0  0  0  0
    9.0769  -20.6565    0.0000 N   0  0  0  0  0  0  0  0  0  0  0  0
    7.6508  -20.6398    0.0000 N   0  0  0  0  0  0  0  0  0  0  0  0
    7.6604  -19.8176    0.0000 C   0  0  0  0  0  0  0  0  0  0  0  0
    6.9313  -21.0434    0.0000 C   0  0  0  0  0  0  0  0  0  0  0  0
    6.2248  -20.6229    0.0000 C   0  0  0  0  0  0  0  0  0  0  0  0
    5.5051  -21.0266    0.0000 C   0  0  0  0  0  0  0  0  0  0  0  0
    4.7986  -20.6062    0.0000 N   0  0  0  0  0  0  0  0  0  0  0  0
  1  2  1  0  0  0  0 
  2  3  1  0  0  0  0 
  2  4  1  0  0  0  0 
  4  5  1  0  0  0  0 
  5  6  2  0  0  0  0 
  6  7  1  0  0  0  0 
  7  8  2  0  0  0  0 
  8  9  1  0  0  0  0 
  4  9  2  0  0  0  0 
  7 10  1  0  0  0  0 
 10 11  1  0  0  0  0 
 11 12  2  0  0  0  0 
 12 13  1  0  0  0  0 
 13 14  2  0  0  0  0 
 14 15  1  0  0  0  0 
 15 16  2  0  0  0  0 
 16 17  1  0  0  0  0 
 12 17  1  0  0  0  0 
 17 18  2  0  0  0  0 
 18 19  1  0  0  0  0 
 10 19  2  0  0  0  0 
 18 20  1  0  0  0  0 
 20 21  1  0  0  0  0 
 20 22  1  0  0  0  0 
 22 23  1  0  0  0  0 
 23 24  1  0  0  0  0 
 24 25  1  0  0  0  0 
M  END

>  <pIC50>
7.14266750357

$$$$

  CDK    9/16/09,10:7

 24 25  0  0  0  0  0  0  0  0999 V2000
    2.2248   -4.2094    0.0000 C   0  0  0  0  0  0  0  0  0  0  0  0
    1.5083   -4.6208    0.0000 C   0  0  0  0  0  0  0  0  0  0  0  0
    1.5070   -5.4458    0.0000 C   0  0  0  0  0  0  0  0  0  0  0  0
    0.7930   -4.2072    0.0000 O   0  0  0  0  0  0  0  0  0  0  0  0
    0.7943   -3.3822    0.0000 C   0  0  0  0  0  0  0  0  0  0  0  0
    1.5109   -2.9708    0.0000 C   0  0  0  0  0  0  0  0  0  0  0  0
    1.5121   -2.1458    0.0000 C   0  0  0  0  0  0  0  0  0  0  0  0
    0.7969   -1.7322    0.0000 C   0  0  0  0  0  0  0  0  0  0  0  0
    0.0804   -2.1435    0.0000 C   0  0  0  0  0  0  0  0  0  0  0  0
   -0.6306   -1.7299    0.0000 N   0  0  0  0  0  0  0  0  0  0  0  0
   -1.3471   -2.1454    0.0000 C   0  0  0  0  0  0  0  0  0  0  0  0
   -1.3484   -2.9704    0.0000 N   0  0  0  0  0  0  0  0  0  0  0  0
   -2.0650   -3.3818    0.0000 C   0  0  0  0  0  0  0  0  0  0  0  0
   -2.0663   -4.2068    0.0000 N   0  0  0  0  0  0  0  0  0  0  0  0
   -2.7786   -4.6182    0.0000 C   0  0  0  0  0  0  0  0  0  0  0  0
   -2.7799   -5.4432    0.0000 C   0  0  0  0  0  0  0  0  0  0  0  0
   -3.4922   -5.8546    0.0000 N   0  0  0  0  0  0  0  0  0  0  0  0
   -2.7760   -2.9682    0.0000 N   0  0  0  0  0  0  0  0  0  0  0  0
   -2.7789   -2.1432    0.0000 C   0  0  0  0  0  0  0  0  0  0  0  0
   -2.0624   -1.7318    0.0000 C   0  0  0  0  0  0  0  0  0  0  0  0
   -2.0611   -0.9068    0.0000 C   0  0  0  0  0  0  0  0  0  0  0  0
   -1.3445   -0.4954    0.0000 O   0  0  0  0  0  0  0  0  0  0  0  0
   -2.7763   -0.4932    0.0000 N   0  0  0  0  0  0  0  0  0  0  0  0
    0.0833   -2.9685    0.0000 C   0  0  0  0  0  0  0  0  0  0  0  0
  1  2  1  0  0  0  0 
  2  3  1  0  0  0  0 
  2  4  1  0  0  0  0 
  4  5  1  0  0  0  0 
  5  6  1  0  0  0  0 
  6  7  2  0  0  0  0 
  7  8  1  0  0  0  0 
  8  9  2  0  0  0  0 
  9 10  1  0  0  0  0 
 10 11  1  0  0  0  0 
 11 12  2  0  0  0  0 
 12 13  1  0  0  0  0 
 13 14  1  0  0  0  0 
 14 15  1  0  0  0  0 
 15 16  1  0  0  0  0 
 16 17  1  0  0  0  0 
 13 18  2  0  0  0  0 
 18 19  1  0  0  0  0 
 19 20  2  0  0  0  0 
 11 20  1  0  0  0  0 
 20 21  1  0  0  0  0 
 21 22  2  0  0  0  0 
 21 23  1  0  0  0  0 
  9 24  1  0  0  0  0 
  5 24  2  0  0  0  0 
M  END

>  <pIC50>
7.14266750357

$$$$

  CDK    9/16/09,10:7

 23 24  0  0  0  0  0  0  0  0999 V2000
    4.0006   -1.0101    0.0000 C   0  0  0  0  0  0  0  0  0  0  0  0
    3.9859   -1.8313    0.0000 C   0  0  0  0  0  0  0  0  0  0  0  0
    4.6933   -2.2560    0.0000 O   0  0  0  0  0  0  0  0  0  0  0  0
    4.6785   -3.0772    0.0000 C   0  0  0  0  0  0  0  0  0  0  0  0
    3.9586   -3.4775    0.0000 C   0  0  0  0  0  0  0  0  0  0  0  0
    3.9458   -4.3025    0.0000 C   0  0  0  0  0  0  0  0  0  0  0  0
    4.6532   -4.7272    0.0000 C   0  0  0  0  0  0  0  0  0  0  0  0
    5.3732   -4.3268    0.0000 C   0  0  0  0  0  0  0  0  0  0  0  0
    6.0805   -4.7515    0.0000 N   0  0  0  0  0  0  0  0  0  0  0  0
    6.8006   -4.3512    0.0000 C   0  0  0  0  0  0  0  0  0  0  0  0
    6.8133   -3.5263    0.0000 N   0  0  0  0  0  0  0  0  0  0  0  0
    7.5333   -3.1260    0.0000 C   0  0  0  0  0  0  0  0  0  0  0  0
    7.5460   -2.3011    0.0000 N   0  0  0  0  0  0  0  0  0  0  0  0
    8.2661   -1.9008    0.0000 C   0  0  0  0  0  0  0  0  0  0  0  0
    8.2788   -1.0759    0.0000 C   0  0  0  0  0  0  0  0  0  0  0  0
    8.9989   -0.6756    0.0000 N   0  0  0  0  0  0  0  0  0  0  0  0
    8.2406   -3.5506    0.0000 N   0  0  0  0  0  0  0  0  0  0  0  0
    8.2260   -4.3720    0.0000 C   0  0  0  0  0  0  0  0  0  0  0  0
    7.5059   -4.7722    0.0000 C   0  0  0  0  0  0  0  0  0  0  0  0
    7.4932   -5.5972    0.0000 C   0  0  0  0  0  0  0  0  0  0  0  0
    6.7732   -5.9974    0.0000 O   0  0  0  0  0  0  0  0  0  0  0  0
    8.2006   -6.0218    0.0000 N   0  0  0  0  0  0  0  0  0  0  0  0
    5.3859   -3.5019    0.0000 C   0  0  0  0  0  0  0  0  0  0  0  0
  1  2  1  0  0  0  0 
  2  3  1  0  0  0  0 
  3  4  1  0  0  0  0 
  4  5  2  0  0  0  0 
  5  6  1  0  0  0  0 
  6  7  2  0  0  0  0 
  7  8  1  0  0  0  0 
  8  9  1  0  0  0  0 
  9 10  1  0  0  0  0 
 10 11  2  0  0  0  0 
 11 12  1  0  0  0  0 
 12 13  1  0  0  0  0 
 13 14  1  0  0  0  0 
 14 15  1  0  0  0  0 
 15 16  1  0  0  0  0 
 12 17  2  0  0  0  0 
 17 18  1  0  0  0  0 
 18 19  2  0  0  0  0 
 10 19  1  0  0  0  0 
 19 20  1  0  0  0  0 
 20 21  2  0  0  0  0 
 20 22  1  0  0  0  0 
  8 23  2  0  0  0  0 
  4 23  1  0  0  0  0 
M  END

>  <pIC50>
7.09151498112

$$$$

  CDK    9/16/09,10:7

 23 24  0  0  0  0  0  0  0  0999 V2000
   15.7953   -4.9830    0.0000 C   0  0  0  0  0  0  0  0  0  0  0  0
   15.0841   -4.5708    0.0000 C   0  0  0  0  0  0  0  0  0  0  0  0
   14.3692   -4.9827    0.0000 C   0  0  0  0  0  0  0  0  0  0  0  0
   15.0840   -3.7487    0.0000 C   0  0  0  0  0  0  0  0  0  0  0  0
   15.7988   -3.3368    0.0000 C   0  0  0  0  0  0  0  0  0  0  0  0
   15.7988   -2.5147    0.0000 C   0  0  0  0  0  0  0  0  0  0  0  0
   15.0855   -2.0989    0.0000 C   0  0  0  0  0  0  0  0  0  0  0  0
   14.3707   -2.5109    0.0000 C   0  0  0  0  0  0  0  0  0  0  0  0
   13.6593   -2.0986    0.0000 N   0  0  0  0  0  0  0  0  0  0  0  0
   12.9445   -2.5106    0.0000 C   0  0  0  0  0  0  0  0  0  0  0  0
   12.9446   -3.3326    0.0000 N   0  0  0  0  0  0  0  0  0  0  0  0
   12.2298   -3.7446    0.0000 C   0  0  0  0  0  0  0  0  0  0  0  0
   12.2319   -4.5702    0.0000 N   0  0  0  0  0  0  0  0  0  0  0  0
   11.5171   -4.9822    0.0000 C   0  0  0  0  0  0  0  0  0  0  0  0
   11.5171   -5.8043    0.0000 C   0  0  0  0  0  0  0  0  0  0  0  0
   10.8023   -6.2162    0.0000 N   0  0  0  0  0  0  0  0  0  0  0  0
   11.5185   -3.3323    0.0000 N   0  0  0  0  0  0  0  0  0  0  0  0
   11.5185   -2.5103    0.0000 C   0  0  0  0  0  0  0  0  0  0  0  0
   12.2333   -2.0983    0.0000 C   0  0  0  0  0  0  0  0  0  0  0  0
   12.2312   -1.2727    0.0000 C   0  0  0  0  0  0  0  0  0  0  0  0
   12.9460   -0.8608    0.0000 O   0  0  0  0  0  0  0  0  0  0  0  0
   11.5199   -0.8605    0.0000 N   0  0  0  0  0  0  0  0  0  0  0  0
   14.3727   -3.3365    0.0000 C   0  0  0  0  0  0  0  0  0  0  0  0
  1  2  1  0  0  0  0 
  2  3  1  0  0  0  0 
  2  4  1  0  0  0  0 
  4  5  1  0  0  0  0 
  5  6  2  0  0  0  0 
  6  7  1  0  0  0  0 
  7  8  2  0  0  0  0 
  8  9  1  0  0  0  0 
  9 10  1  0  0  0  0 
 10 11  1  0  0  0  0 
 11 12  2  0  0  0  0 
 12 13  1  0  0  0  0 
 13 14  1  0  0  0  0 
 14 15  1  0  0  0  0 
 15 16  1  0  0  0  0 
 12 17  1  0  0  0  0 
 17 18  2  0  0  0  0 
 18 19  1  0  0  0  0 
 10 19  2  0  0  0  0 
 19 20  1  0  0  0  0 
 20 21  2  0  0  0  0 
 20 22  1  0  0  0  0 
  8 23  1  0  0  0  0 
  4 23  2  0  0  0  0 
M  END

>  <pIC50>
7.03621217265

$$$$

  CDK    9/16/09,10:7

 29 32  0  0  0  0  0  0  0  0999 V2000
   -3.5353   -8.5965    0.0000 C   0  0  0  0  0  0  0  0  0  0  0  0
   -4.2539   -9.0124    0.0000 C   0  0  0  0  0  0  0  0  0  0  0  0
   -4.2539   -9.8357    0.0000 N   0  0  0  0  0  0  0  0  0  0  0  0
   -3.5353  -10.2516    0.0000 S   0  0  0  0  0  0  0  0  0  0  0  0
   -3.1236   -9.5329    0.0000 O   0  0  0  0  0  0  0  0  0  0  0  0
   -3.9470  -10.9659    0.0000 O   0  0  0  0  0  0  0  0  0  0  0  0
   -2.8209  -10.6632    0.0000 C   0  0  0  0  0  0  0  0  0  0  0  0
   -2.8209  -11.4907    0.0000 C   0  0  0  0  0  0  0  0  0  0  0  0
   -2.1065  -11.9023    0.0000 C   0  0  0  0  0  0  0  0  0  0  0  0
   -1.3920  -11.4907    0.0000 C   0  0  0  0  0  0  0  0  0  0  0  0
   -0.6048  -11.7432    0.0000 N   0  0  0  0  0  0  0  0  0  0  0  0
   -0.1169  -11.0749    0.0000 C   0  0  0  0  0  0  0  0  0  0  0  0
    0.7065  -11.0749    0.0000 O   0  0  0  0  0  0  0  0  0  0  0  0
   -0.6048  -10.4066    0.0000 C   0  0  0  0  0  0  0  0  0  0  0  0
   -0.3482   -9.6235    0.0000 C   0  0  0  0  0  0  0  0  0  0  0  0
    0.4604   -9.4515    0.0000 C   0  0  0  0  0  0  0  0  0  0  0  0
    1.0713  -10.0035    0.0000 C   0  0  0  0  0  0  0  0  0  0  0  0
    1.7900   -9.5918    0.0000 N   0  0  0  0  0  0  0  0  0  0  0  0
    2.5429   -9.9245    0.0000 C   0  0  0  0  0  0  0  0  0  0  0  0
    1.6179   -8.7832    0.0000 C   0  0  0  0  0  0  0  0  0  0  0  0
    2.1017   -8.1150    0.0000 C   0  0  0  0  0  0  0  0  0  0  0  0
    1.7647   -7.3579    0.0000 C   0  0  0  0  0  0  0  0  0  0  0  0
    0.9441   -7.2733    0.0000 C   0  0  0  0  0  0  0  0  0  0  0  0
    0.6072   -6.5162    0.0000 O   0  0  0  0  0  0  0  0  0  0  0  0
    1.0951   -5.8479    0.0000 C   0  0  0  0  0  0  0  0  0  0  0  0
    0.4604   -7.9415    0.0000 C   0  0  0  0  0  0  0  0  0  0  0  0
    0.7973   -8.6944    0.0000 C   0  0  0  0  0  0  0  0  0  0  0  0
   -1.3920  -10.6632    0.0000 C   0  0  0  0  0  0  0  0  0  0  0  0
   -2.1065  -10.2516    0.0000 C   0  0  0  0  0  0  0  0  0  0  0  0
  1  2  1  0  0  0  0 
  2  3  1  0  0  0  0 
  3  4  1  0  0  0  0 
  4  5  2  0  0  0  0 
  4  6  2  0  0  0  0 
  4  7  1  0  0  0  0 
  7  8  1  0  0  0  0 
  8  9  2  0  0  0  0 
  9 10  1  0  0  0  0 
 10 11  1  0  0  0  0 
 11 12  1  0  0  0  0 
 12 13  2  0  0  0  0 
 12 14  1  0  0  0  0 
 14 15  2  0  0  0  0 
 15 16  1  0  0  0  0 
 16 17  2  0  0  0  0 
 17 18  1  0  0  0  0 
 18 19  1  0  0  0  0 
 18 20  1  0  0  0  0 
 20 21  1  0  0  0  0 
 21 22  2  0  0  0  0 
 22 23  1  0  0  0  0 
 23 24  1  0  0  0  0 
 24 25  1  0  0  0  0 
 23 26  2  0  0  0  0 
 26 27  1  0  0  0  0 
 16 27  1  0  0  0  0 
 20 27  2  0  0  0  0 
 14 28  1  0  0  0  0 
 10 28  2  0  0  0  0 
 28 29  1  0  0  0  0 
  7 29  2  0  0  0  0 
M  END

>  <pIC50>
7.0

$$$$

  CDK    9/16/09,10:7

 23 25  0  0  0  0  0  0  0  0999 V2000
    5.8337   -7.7513    0.0000 C   0  0  0  0  0  0  0  0  0  0  0  0
    5.8337   -8.5763    0.0000 C   0  0  0  0  0  0  0  0  0  0  0  0
    6.5495   -8.9888    0.0000 C   0  0  0  0  0  0  0  0  0  0  0  0
    6.5495   -9.8138    0.0000 C   0  0  0  0  0  0  0  0  0  0  0  0
    7.2654  -10.2263    0.0000 N   0  0  0  0  0  0  0  0  0  0  0  0
    7.9771   -9.8138    0.0000 C   0  0  0  0  0  0  0  0  0  0  0  0
    7.9771   -8.9888    0.0000 N   0  0  0  0  0  0  0  0  0  0  0  0
    8.6930   -8.5763    0.0000 C   0  0  0  0  0  0  0  0  0  0  0  0
    9.4088   -8.9888    0.0000 C   0  0  0  0  0  0  0  0  0  0  0  0
    9.4088   -9.8138    0.0000 C   0  0  0  0  0  0  0  0  0  0  0  0
    8.6930  -10.2263    0.0000 N   0  0  0  0  0  0  0  0  0  0  0  0
   10.1205  -10.2263    0.0000 C   0  0  0  0  0  0  0  0  0  0  0  0
   10.8750   -9.8887    0.0000 N   0  0  0  0  0  0  0  0  0  0  0  0
   11.4280  -10.5010    0.0000 C   0  0  0  0  0  0  0  0  0  0  0  0
   11.0155  -11.2168    0.0000 C   0  0  0  0  0  0  0  0  0  0  0  0
   10.2095  -11.0445    0.0000 S   0  0  0  0  0  0  0  0  0  0  0  0
    5.8337  -10.2263    0.0000 C   0  0  0  0  0  0  0  0  0  0  0  0
    5.1220   -9.8138    0.0000 C   0  0  0  0  0  0  0  0  0  0  0  0
    5.1220   -8.9888    0.0000 C   0  0  0  0  0  0  0  0  0  0  0  0
    4.4061  -10.2263    0.0000 C   0  0  0  0  0  0  0  0  0  0  0  0
    4.8186  -10.9380    0.0000 F   0  0  0  0  0  0  0  0  0  0  0  0
    3.6902  -10.6388    0.0000 F   0  0  0  0  0  0  0  0  0  0  0  0
    3.9936   -9.5104    0.0000 F   0  0  0  0  0  0  0  0  0  0  0  0
  1  2  1  0  0  0  0 
  2  3  1  0  0  0  0 
  3  4  2  0  0  0  0 
  4  5  1  0  0  0  0 
  5  6  1  0  0  0  0 
  6  7  2  0  0  0  0 
  7  8  1  0  0  0  0 
  8  9  2  0  0  0  0 
  9 10  1  0  0  0  0 
 10 11  2  0  0  0  0 
  6 11  1  0  0  0  0 
 10 12  1  0  0  0  0 
 12 13  2  0  0  0  0 
 13 14  1  0  0  0  0 
 14 15  2  0  0  0  0 
 15 16  1  0  0  0  0 
 12 16  1  0  0  0  0 
  4 17  1  0  0  0  0 
 17 18  2  0  0  0  0 
 18 19  1  0  0  0  0 
  2 19  2  0  0  0  0 
 18 20  1  0  0  0  0 
 20 21  1  0  0  0  0 
 20 22  1  0  0  0  0 
 20 23  1  0  0  0  0 
M  END

>  <pIC50>
6.95860731484

$$$$

  CDK    5/12/10,14:52

 22 23  0  0  0  0  0  0  0  0999 V2000
    4.0270  -23.3831    0.0000 C   0  0  0  0  0  0  0  0  0  0  0  0
    4.0257  -24.2107    0.0000 C   0  0  0  0  0  0  0  0  0  0  0  0
    4.7387  -24.6236    0.0000 C   0  0  0  0  0  0  0  0  0  0  0  0
    5.4580  -24.2102    0.0000 C   0  0  0  0  0  0  0  0  0  0  0  0
    5.4548  -23.3792    0.0000 C   0  0  0  0  0  0  0  0  0  0  0  0
    4.7367  -22.9703    0.0000 C   0  0  0  0  0  0  0  0  0  0  0  0
    6.1728  -24.6220    0.0000 N   0  0  0  0  0  0  0  0  0  0  0  0
    6.1735  -25.4470    0.0000 C   0  0  0  0  0  0  0  0  0  0  0  0
    5.4582  -25.8576    0.0000 N   0  0  0  0  0  0  0  0  0  0  0  0
    5.4586  -26.6818    0.0000 C   0  0  0  0  0  0  0  0  0  0  0  0
    6.1739  -27.0944    0.0000 N   0  0  0  0  0  0  0  0  0  0  0  0
    6.8904  -26.6768    0.0000 C   0  0  0  0  0  0  0  0  0  0  0  0
    6.8865  -25.8541    0.0000 C   0  0  0  0  0  0  0  0  0  0  0  0
    7.5989  -25.4381    0.0000 C   0  0  0  0  0  0  0  0  0  0  0  0
    8.3153  -25.8471    0.0000 N   0  0  0  0  0  0  0  0  0  0  0  0
    7.5950  -24.6132    0.0000 O   0  0  0  0  0  0  0  0  0  0  0  0
    4.7443  -27.0946    0.0000 N   0  0  0  0  0  0  0  0  0  0  0  0
    4.0298  -26.6823    0.0000 C   0  0  0  0  0  0  0  0  0  0  0  0
    3.3155  -27.0951    0.0000 C   0  0  0  0  0  0  0  0  0  0  0  0
    2.6008  -26.6830    0.0000 N   0  0  0  0  0  0  0  0  0  0  0  0
    4.7328  -22.1454    0.0000 C   0  0  0  0  0  0  0  0  0  0  0  0
    4.7332  -21.3174    0.0000 N   0  0  0  0  0  0  0  0  0  0  0  0
 10 11  2  0  0  0  0 
  5  6  2  0  0  0  0 
 11 12  1  0  0  0  0 
  6  1  1  0  0  0  0 
 12 13  2  0  0  0  0 
 13  8  1  0  0  0  0 
  1  2  2  0  0  0  0 
 13 14  1  0  0  0  0 
  4  7  1  0  0  0  0 
 14 15  1  0  0  0  0 
  3  4  2  0  0  0  0 
 14 16  2  0  0  0  0 
  7  8  1  0  0  0  0 
 10 17  1  0  0  0  0 
 17 18  1  0  0  0  0 
  8  9  2  0  0  0  0 
 18 19  1  0  0  0  0 
  4  5  1  0  0  0  0 
 19 20  1  0  0  0  0 
  9 10  1  0  0  0  0 
  6 21  1  0  0  0  0 
  2  3  1  0  0  0  0 
 21 22  3  0  0  0  0 
M  END

>  <pIC50>
6.95860731484

$$$$

  CDK    9/16/09,10:7

 24 26  0  0  0  0  0  0  0  0999 V2000
   -4.3417  -17.1521    0.0000 C   0  0  0  0  0  0  0  0  0  0  0  0
   -3.6253  -17.5667    0.0000 O   0  0  0  0  0  0  0  0  0  0  0  0
   -2.9129  -17.1521    0.0000 C   0  0  0  0  0  0  0  0  0  0  0  0
   -2.9129  -16.3271    0.0000 C   0  0  0  0  0  0  0  0  0  0  0  0
   -2.2006  -15.9166    0.0000 C   0  0  0  0  0  0  0  0  0  0  0  0
   -1.4883  -16.3271    0.0000 C   0  0  0  0  0  0  0  0  0  0  0  0
   -1.4883  -17.1521    0.0000 C   0  0  0  0  0  0  0  0  0  0  0  0
   -2.2006  -17.5667    0.0000 C   0  0  0  0  0  0  0  0  0  0  0  0
   -0.7718  -15.9166    0.0000 C   0  0  0  0  0  0  0  0  0  0  0  0
   -0.7718  -15.0915    0.0000 C   0  0  0  0  0  0  0  0  0  0  0  0
   -0.0553  -14.6769    0.0000 C   0  0  0  0  0  0  0  0  0  0  0  0
   -0.0553  -13.8519    0.0000 N   0  0  0  0  0  0  0  0  0  0  0  0
    0.6611  -13.4414    0.0000 C   0  0  0  0  0  0  0  0  0  0  0  0
    0.6611  -12.6163    0.0000 Br  0  0  0  0  0  0  0  0  0  0  0  0
    1.3735  -13.8519    0.0000 C   0  0  0  0  0  0  0  0  0  0  0  0
    1.3735  -14.6769    0.0000 C   0  0  0  0  0  0  0  0  0  0  0  0
    0.6611  -15.0915    0.0000 C   0  0  0  0  0  0  0  0  0  0  0  0
    0.6611  -15.9166    0.0000 C   0  0  0  0  0  0  0  0  0  0  0  0
    1.3735  -16.3271    0.0000 N   0  0  0  0  0  0  0  0  0  0  0  0
    2.0899  -15.9166    0.0000 C   0  0  0  0  0  0  0  0  0  0  0  0
    2.8023  -16.3271    0.0000 C   0  0  0  0  0  0  0  0  0  0  0  0
    3.5146  -15.9166    0.0000 C   0  0  0  0  0  0  0  0  0  0  0  0
    4.2311  -16.3271    0.0000 N   0  0  0  0  0  0  0  0  0  0  0  0
   -0.0553  -16.3271    0.0000 N   0  0  0  0  0  0  0  0  0  0  0  0
  1  2  1  0  0  0  0 
  2  3  1  0  0  0  0 
  3  4  1  0  0  0  0 
  4  5  2  0  0  0  0 
  5  6  1  0  0  0  0 
  6  7  2  0  0  0  0 
  7  8  1  0  0  0  0 
  3  8  2  0  0  0  0 
  6  9  1  0  0  0  0 
  9 10  1  0  0  0  0 
 10 11  2  0  0  0  0 
 11 12  1  0  0  0  0 
 12 13  2  0  0  0  0 
 13 14  1  0  0  0  0 
 13 15  1  0  0  0  0 
 15 16  2  0  0  0  0 
 16 17  1  0  0  0  0 
 11 17  1  0  0  0  0 
 17 18  2  0  0  0  0 
 18 19  1  0  0  0  0 
 19 20  1  0  0  0  0 
 20 21  1  0  0  0  0 
 21 22  1  0  0  0  0 
 22 23  1  0  0  0  0 
 18 24  1  0  0  0  0 
  9 24  2  0  0  0  0 
M  END

>  <pIC50>
6.92081875395

$$$$

  CDK    9/16/09,10:7

 35 39  0  0  0  0  0  0  0  0999 V2000
   16.9509  -15.8364    0.0000 N   0  0  0  0  0  0  0  0  0  0  0  0
   16.2840  -15.3567    0.0000 S   0  0  0  0  0  0  0  0  0  0  0  0
   16.7674  -14.6882    0.0000 O   0  0  0  0  0  0  0  0  0  0  0  0
   15.8006  -16.0254    0.0000 O   0  0  0  0  0  0  0  0  0  0  0  0
   15.6155  -14.8733    0.0000 C   0  0  0  0  0  0  0  0  0  0  0  0
   15.6984  -14.0525    0.0000 C   0  0  0  0  0  0  0  0  0  0  0  0
   15.0298  -13.5691    0.0000 C   0  0  0  0  0  0  0  0  0  0  0  0
   14.2783  -13.9066    0.0000 C   0  0  0  0  0  0  0  0  0  0  0  0
   13.5240  -13.5751    0.0000 N   0  0  0  0  0  0  0  0  0  0  0  0
   12.9748  -14.1912    0.0000 C   0  0  0  0  0  0  0  0  0  0  0  0
   12.1578  -14.1065    0.0000 O   0  0  0  0  0  0  0  0  0  0  0  0
   13.3906  -14.9001    0.0000 C   0  0  0  0  0  0  0  0  0  0  0  0
   13.0590  -15.6543    0.0000 C   0  0  0  0  0  0  0  0  0  0  0  0
   12.2408  -15.7449    0.0000 C   0  0  0  0  0  0  0  0  0  0  0  0
   11.6856  -15.1353    0.0000 C   0  0  0  0  0  0  0  0  0  0  0  0
   10.9341  -15.4727    0.0000 N   0  0  0  0  0  0  0  0  0  0  0  0
   10.2187  -15.0610    0.0000 C   0  0  0  0  0  0  0  0  0  0  0  0
    9.5042  -15.4747    0.0000 C   0  0  0  0  0  0  0  0  0  0  0  0
    8.7943  -15.0651    0.0000 C   0  0  0  0  0  0  0  0  0  0  0  0
    8.0798  -15.4787    0.0000 C   0  0  0  0  0  0  0  0  0  0  0  0
    8.0809  -16.3040    0.0000 O   0  0  0  0  0  0  0  0  0  0  0  0
    7.3662  -15.0707    0.0000 N   0  0  0  0  0  0  0  0  0  0  0  0
    7.3613  -14.2471    0.0000 C   0  0  0  0  0  0  0  0  0  0  0  0
    6.6458  -13.8354    0.0000 C   0  0  0  0  0  0  0  0  0  0  0  0
    5.9369  -14.2511    0.0000 O   0  0  0  0  0  0  0  0  0  0  0  0
    5.9380  -15.0764    0.0000 C   0  0  0  0  0  0  0  0  0  0  0  0
    6.6517  -15.4844    0.0000 C   0  0  0  0  0  0  0  0  0  0  0  0
   11.0208  -16.2927    0.0000 C   0  0  0  0  0  0  0  0  0  0  0  0
   10.4737  -16.9032    0.0000 C   0  0  0  0  0  0  0  0  0  0  0  0
   10.7291  -17.6888    0.0000 C   0  0  0  0  0  0  0  0  0  0  0  0
   11.5373  -17.8565    0.0000 C   0  0  0  0  0  0  0  0  0  0  0  0
   12.0865  -17.2403    0.0000 C   0  0  0  0  0  0  0  0  0  0  0  0
   11.8291  -16.4604    0.0000 C   0  0  0  0  0  0  0  0  0  0  0  0
   14.1953  -14.7274    0.0000 C   0  0  0  0  0  0  0  0  0  0  0  0
   14.8639  -15.2108    0.0000 C   0  0  0  0  0  0  0  0  0  0  0  0
  1  2  1  0  0  0  0 
  2  3  2  0  0  0  0 
  2  4  2  0  0  0  0 
  2  5  1  0  0  0  0 
  5  6  1  0  0  0  0 
  6  7  2  0  0  0  0 
  7  8  1  0  0  0  0 
  8  9  1  0  0  0  0 
  9 10  1  0  0  0  0 
 10 11  2  0  0  0  0 
 10 12  1  0  0  0  0 
 12 13  2  0  0  0  0 
 13 14  1  0  0  0  0 
 14 15  2  0  0  0  0 
 15 16  1  0  0  0  0 
 16 17  1  0  0  0  0 
 17 18  1  0  0  0  0 
 18 19  1  0  0  0  0 
 19 20  1  0  0  0  0 
 20 21  2  0  0  0  0 
 20 22  1  0  0  0  0 
 22 23  1  0  0  0  0 
 23 24  1  0  0  0  0 
 24 25  1  0  0  0  0 
 25 26  1  0  0  0  0 
 26 27  1  0  0  0  0 
 22 27  1  0  0  0  0 
 16 28  1  0  0  0  0 
 28 29  1  0  0  0  0 
 29 30  2  0  0  0  0 
 30 31  1  0  0  0  0 
 31 32  2  0  0  0  0 
 32 33  1  0  0  0  0 
 14 33  1  0  0  0  0 
 28 33  2  0  0  0  0 
 12 34  1  0  0  0  0 
  8 34  2  0  0  0  0 
 34 35  1  0  0  0  0 
  5 35  2  0  0  0  0 
M  END

>  <pIC50>
6.87614835903

$$$$

  CDK    9/16/09,10:7

 23 25  0  0  0  0  0  0  0  0999 V2000
   -3.9582  -22.1634    0.0000 C   0  0  0  0  0  0  0  0  0  0  0  0
   -3.2459  -22.5738    0.0000 O   0  0  0  0  0  0  0  0  0  0  0  0
   -2.5335  -22.1634    0.0000 C   0  0  0  0  0  0  0  0  0  0  0  0
   -2.5335  -21.3383    0.0000 C   0  0  0  0  0  0  0  0  0  0  0  0
   -1.8212  -20.9278    0.0000 C   0  0  0  0  0  0  0  0  0  0  0  0
   -1.1047  -21.3383    0.0000 C   0  0  0  0  0  0  0  0  0  0  0  0
   -1.1047  -22.1634    0.0000 C   0  0  0  0  0  0  0  0  0  0  0  0
   -1.8212  -22.5738    0.0000 C   0  0  0  0  0  0  0  0  0  0  0  0
   -0.3924  -20.9278    0.0000 C   0  0  0  0  0  0  0  0  0  0  0  0
   -0.3924  -20.1028    0.0000 C   0  0  0  0  0  0  0  0  0  0  0  0
    0.3199  -19.6923    0.0000 C   0  0  0  0  0  0  0  0  0  0  0  0
    0.3199  -18.8672    0.0000 N   0  0  0  0  0  0  0  0  0  0  0  0
    1.0322  -18.4568    0.0000 C   0  0  0  0  0  0  0  0  0  0  0  0
    1.7487  -18.8672    0.0000 C   0  0  0  0  0  0  0  0  0  0  0  0
    1.7487  -19.6923    0.0000 C   0  0  0  0  0  0  0  0  0  0  0  0
    1.0322  -20.1028    0.0000 C   0  0  0  0  0  0  0  0  0  0  0  0
    1.0322  -20.9278    0.0000 C   0  0  0  0  0  0  0  0  0  0  0  0
    1.7487  -21.3383    0.0000 N   0  0  0  0  0  0  0  0  0  0  0  0
    2.4610  -20.9278    0.0000 C   0  0  0  0  0  0  0  0  0  0  0  0
    3.1733  -21.3383    0.0000 C   0  0  0  0  0  0  0  0  0  0  0  0
    3.8857  -20.9278    0.0000 C   0  0  0  0  0  0  0  0  0  0  0  0
    4.5979  -21.3383    0.0000 N   0  0  0  0  0  0  0  0  0  0  0  0
    0.3199  -21.3383    0.0000 N   0  0  0  0  0  0  0  0  0  0  0  0
  1  2  1  0  0  0  0 
  2  3  1  0  0  0  0 
  3  4  1  0  0  0  0 
  4  5  2  0  0  0  0 
  5  6  1  0  0  0  0 
  6  7  2  0  0  0  0 
  7  8  1  0  0  0  0 
  3  8  2  0  0  0  0 
  6  9  1  0  0  0  0 
  9 10  2  0  0  0  0 
 10 11  1  0  0  0  0 
 11 12  1  0  0  0  0 
 12 13  2  0  0  0  0 
 13 14  1  0  0  0  0 
 14 15  2  0  0  0  0 
 15 16  1  0  0  0  0 
 11 16  2  0  0  0  0 
 16 17  1  0  0  0  0 
 17 18  1  0  0  0  0 
 18 19  1  0  0  0  0 
 19 20  1  0  0  0  0 
 20 21  1  0  0  0  0 
 21 22  1  0  0  0  0 
 17 23  2  0  0  0  0 
  9 23  1  0  0  0  0 
M  END

>  <pIC50>
6.85387196432

$$$$

  CDK    9/16/09,10:7

 27 30  0  0  0  0  0  0  0  0999 V2000
   11.7281  -18.1956    0.0000 C   0  0  0  0  0  0  0  0  0  0  0  0
   11.3156  -18.9073    0.0000 N   0  0  0  0  0  0  0  0  0  0  0  0
   11.7281  -19.6231    0.0000 C   0  0  0  0  0  0  0  0  0  0  0  0
   12.5530  -19.6231    0.0000 O   0  0  0  0  0  0  0  0  0  0  0  0
   11.3156  -20.3390    0.0000 C   0  0  0  0  0  0  0  0  0  0  0  0
   11.7281  -21.0506    0.0000 C   0  0  0  0  0  0  0  0  0  0  0  0
   11.3156  -21.7664    0.0000 C   0  0  0  0  0  0  0  0  0  0  0  0
   10.4907  -21.7664    0.0000 C   0  0  0  0  0  0  0  0  0  0  0  0
    9.9376  -22.3786    0.0000 N   0  0  0  0  0  0  0  0  0  0  0  0
    9.1832  -22.0453    0.0000 C   0  0  0  0  0  0  0  0  0  0  0  0
    8.4674  -22.4577    0.0000 O   0  0  0  0  0  0  0  0  0  0  0  0
    9.2681  -21.2229    0.0000 C   0  0  0  0  0  0  0  0  0  0  0  0
    8.6558  -20.6700    0.0000 C   0  0  0  0  0  0  0  0  0  0  0  0
    7.8712  -20.9270    0.0000 C   0  0  0  0  0  0  0  0  0  0  0  0
    7.6183  -21.7116    0.0000 C   0  0  0  0  0  0  0  0  0  0  0  0
    6.7933  -21.7116    0.0000 N   0  0  0  0  0  0  0  0  0  0  0  0
    6.3087  -22.3811    0.0000 C   0  0  0  0  0  0  0  0  0  0  0  0
    6.5362  -20.9270    0.0000 C   0  0  0  0  0  0  0  0  0  0  0  0
    5.7860  -20.5936    0.0000 C   0  0  0  0  0  0  0  0  0  0  0  0
    5.6970  -19.7713    0.0000 C   0  0  0  0  0  0  0  0  0  0  0  0
    6.3625  -19.2866    0.0000 C   0  0  0  0  0  0  0  0  0  0  0  0
    6.2777  -18.4644    0.0000 O   0  0  0  0  0  0  0  0  0  0  0  0
    5.5274  -18.1310    0.0000 C   0  0  0  0  0  0  0  0  0  0  0  0
    7.1168  -19.6200    0.0000 C   0  0  0  0  0  0  0  0  0  0  0  0
    7.2058  -20.4423    0.0000 C   0  0  0  0  0  0  0  0  0  0  0  0
   10.0782  -21.0506    0.0000 C   0  0  0  0  0  0  0  0  0  0  0  0
   10.4907  -20.3390    0.0000 C   0  0  0  0  0  0  0  0  0  0  0  0
  1  2  1  0  0  0  0 
  2  3  1  0  0  0  0 
  3  4  2  0  0  0  0 
  3  5  1  0  0  0  0 
  5  6  1  0  0  0  0 
  6  7  2  0  0  0  0 
  7  8  1  0  0  0  0 
  8  9  1  0  0  0  0 
  9 10  1  0  0  0  0 
 10 11  2  0  0  0  0 
 10 12  1  0  0  0  0 
 12 13  2  0  0  0  0 
 13 14  1  0  0  0  0 
 14 15  2  0  0  0  0 
 15 16  1  0  0  0  0 
 16 17  1  0  0  0  0 
 16 18  1  0  0  0  0 
 18 19  2  0  0  0  0 
 19 20  1  0  0  0  0 
 20 21  2  0  0  0  0 
 21 22  1  0  0  0  0 
 22 23  1  0  0  0  0 
 21 24  1  0  0  0  0 
 24 25  2  0  0  0  0 
 14 25  1  0  0  0  0 
 18 25  1  0  0  0  0 
 12 26  1  0  0  0  0 
  8 26  2  0  0  0  0 
 26 27  1  0  0  0  0 
  5 27  2  0  0  0  0 
M  END

>  <pIC50>
6.83863199777

$$$$

  CDK    5/12/10,14:52

 21 22  0  0  0  0  0  0  0  0999 V2000
   13.5691  -16.9621    0.0000 C   0  0  0  0  0  0  0  0  0  0  0  0
   13.5678  -17.7897    0.0000 C   0  0  0  0  0  0  0  0  0  0  0  0
   14.2808  -18.2025    0.0000 C   0  0  0  0  0  0  0  0  0  0  0  0
   15.0000  -17.7892    0.0000 C   0  0  0  0  0  0  0  0  0  0  0  0
   14.9968  -16.9582    0.0000 C   0  0  0  0  0  0  0  0  0  0  0  0
   14.2788  -16.5493    0.0000 C   0  0  0  0  0  0  0  0  0  0  0  0
   15.7149  -18.2010    0.0000 N   0  0  0  0  0  0  0  0  0  0  0  0
   15.7155  -19.0260    0.0000 C   0  0  0  0  0  0  0  0  0  0  0  0
   15.0002  -19.4366    0.0000 N   0  0  0  0  0  0  0  0  0  0  0  0
   15.0007  -20.2608    0.0000 C   0  0  0  0  0  0  0  0  0  0  0  0
   15.7160  -20.6734    0.0000 N   0  0  0  0  0  0  0  0  0  0  0  0
   16.4325  -20.2558    0.0000 C   0  0  0  0  0  0  0  0  0  0  0  0
   16.4285  -19.4330    0.0000 C   0  0  0  0  0  0  0  0  0  0  0  0
   17.1410  -19.0170    0.0000 C   0  0  0  0  0  0  0  0  0  0  0  0
   17.8574  -19.4261    0.0000 N   0  0  0  0  0  0  0  0  0  0  0  0
   17.1370  -18.1922    0.0000 O   0  0  0  0  0  0  0  0  0  0  0  0
   14.2864  -20.6736    0.0000 N   0  0  0  0  0  0  0  0  0  0  0  0
   13.5719  -20.2613    0.0000 C   0  0  0  0  0  0  0  0  0  0  0  0
   12.8575  -20.6741    0.0000 C   0  0  0  0  0  0  0  0  0  0  0  0
   12.1429  -20.2620    0.0000 N   0  0  0  0  0  0  0  0  0  0  0  0
   12.8542  -16.5502    0.0000 C   0  0  0  0  0  0  0  0  0  0  0  0
  2  3  1  0  0  0  0 
 10 11  2  0  0  0  0 
  5  6  2  0  0  0  0 
 11 12  1  0  0  0  0 
  6  1  1  0  0  0  0 
 12 13  2  0  0  0  0 
 13  8  1  0  0  0  0 
  1  2  2  0  0  0  0 
 13 14  1  0  0  0  0 
  4  7  1  0  0  0  0 
 14 15  1  0  0  0  0 
  3  4  2  0  0  0  0 
 14 16  2  0  0  0  0 
  7  8  1  0  0  0  0 
 10 17  1  0  0  0  0 
 17 18  1  0  0  0  0 
  8  9  2  0  0  0  0 
 18 19  1  0  0  0  0 
  4  5  1  0  0  0  0 
 19 20  1  0  0  0  0 
  9 10  1  0  0  0  0 
  1 21  1  0  0  0  0 
M  END

>  <pIC50>
6.82390874094

$$$$

  CDK    9/16/09,10:7

 25 27  0  0  0  0  0  0  0  0999 V2000
    5.9423   -2.8035    0.0000 C   0  0  0  0  0  0  0  0  0  0  0  0
    5.2391   -2.3777    0.0000 N   0  0  0  0  0  0  0  0  0  0  0  0
    5.2526   -1.5521    0.0000 C   0  0  0  0  0  0  0  0  0  0  0  0
    4.5165   -2.7760    0.0000 C   0  0  0  0  0  0  0  0  0  0  0  0
    4.5009   -3.5980    0.0000 C   0  0  0  0  0  0  0  0  0  0  0  0
    3.7783   -3.9962    0.0000 C   0  0  0  0  0  0  0  0  0  0  0  0
    3.0750   -3.5705    0.0000 C   0  0  0  0  0  0  0  0  0  0  0  0
    3.0886   -2.7449    0.0000 C   0  0  0  0  0  0  0  0  0  0  0  0
    3.8112   -2.3466    0.0000 C   0  0  0  0  0  0  0  0  0  0  0  0
    2.3525   -3.9688    0.0000 C   0  0  0  0  0  0  0  0  0  0  0  0
    2.3369   -4.7907    0.0000 C   0  0  0  0  0  0  0  0  0  0  0  0
    1.6143   -5.1890    0.0000 C   0  0  0  0  0  0  0  0  0  0  0  0
    1.5987   -6.0109    0.0000 N   0  0  0  0  0  0  0  0  0  0  0  0
    0.8762   -6.4092    0.0000 C   0  0  0  0  0  0  0  0  0  0  0  0
    0.1728   -5.9835    0.0000 C   0  0  0  0  0  0  0  0  0  0  0  0
    0.1885   -5.1615    0.0000 C   0  0  0  0  0  0  0  0  0  0  0  0
    0.9110   -4.7633    0.0000 C   0  0  0  0  0  0  0  0  0  0  0  0
    0.9247   -3.9378    0.0000 C   0  0  0  0  0  0  0  0  0  0  0  0
    0.2213   -3.5121    0.0000 O   0  0  0  0  0  0  0  0  0  0  0  0
   -0.5012   -3.9103    0.0000 C   0  0  0  0  0  0  0  0  0  0  0  0
   -1.2045   -3.4846    0.0000 C   0  0  0  0  0  0  0  0  0  0  0  0
   -1.9270   -3.8829    0.0000 C   0  0  0  0  0  0  0  0  0  0  0  0
   -2.6303   -3.4572    0.0000 C   0  0  0  0  0  0  0  0  0  0  0  0
   -3.3529   -3.8555    0.0000 N   0  0  0  0  0  0  0  0  0  0  0  0
    1.6471   -3.5395    0.0000 N   0  0  0  0  0  0  0  0  0  0  0  0
  1  2  1  0  0  0  0 
  2  3  1  0  0  0  0 
  2  4  1  0  0  0  0 
  4  5  2  0  0  0  0 
  5  6  1  0  0  0  0 
  6  7  2  0  0  0  0 
  7  8  1  0  0  0  0 
  8  9  2  0  0  0  0 
  4  9  1  0  0  0  0 
  7 10  1  0  0  0  0 
 10 11  2  0  0  0  0 
 11 12  1  0  0  0  0 
 12 13  2  0  0  0  0 
 13 14  1  0  0  0  0 
 14 15  2  0  0  0  0 
 15 16  1  0  0  0  0 
 16 17  2  0  0  0  0 
 12 17  1  0  0  0  0 
 17 18  1  0  0  0  0 
 18 19  1  0  0  0  0 
 19 20  1  0  0  0  0 
 20 21  1  0  0  0  0 
 21 22  1  0  0  0  0 
 22 23  1  0  0  0  0 
 23 24  1  0  0  0  0 
 18 25  2  0  0  0  0 
 10 25  1  0  0  0  0 
M  END

>  <pIC50>
6.79588001734

$$$$

  CDK    9/16/09,10:7

 23 25  0  0  0  0  0  0  0  0999 V2000
    7.9201   -3.4114    0.0000 C   0  0  0  0  0  0  0  0  0  0  0  0
    8.6237   -2.9864    0.0000 N   0  0  0  0  0  0  0  0  0  0  0  0
    8.6108   -2.1608    0.0000 C   0  0  0  0  0  0  0  0  0  0  0  0
    9.3459   -3.3853    0.0000 C   0  0  0  0  0  0  0  0  0  0  0  0
   10.0515   -2.9567    0.0000 C   0  0  0  0  0  0  0  0  0  0  0  0
   10.7737   -3.3556    0.0000 C   0  0  0  0  0  0  0  0  0  0  0  0
   10.7865   -4.1811    0.0000 C   0  0  0  0  0  0  0  0  0  0  0  0
   10.0829   -4.6062    0.0000 C   0  0  0  0  0  0  0  0  0  0  0  0
    9.3607   -4.2073    0.0000 C   0  0  0  0  0  0  0  0  0  0  0  0
   11.5087   -4.5800    0.0000 C   0  0  0  0  0  0  0  0  0  0  0  0
   12.2143   -4.1514    0.0000 C   0  0  0  0  0  0  0  0  0  0  0  0
   12.9365   -4.5503    0.0000 C   0  0  0  0  0  0  0  0  0  0  0  0
   13.6401   -4.1252    0.0000 N   0  0  0  0  0  0  0  0  0  0  0  0
   14.3624   -4.5241    0.0000 C   0  0  0  0  0  0  0  0  0  0  0  0
   14.3772   -5.3460    0.0000 C   0  0  0  0  0  0  0  0  0  0  0  0
   13.6716   -5.7747    0.0000 C   0  0  0  0  0  0  0  0  0  0  0  0
   12.9494   -5.3758    0.0000 C   0  0  0  0  0  0  0  0  0  0  0  0
   12.2458   -5.8008    0.0000 C   0  0  0  0  0  0  0  0  0  0  0  0
   12.2606   -6.6228    0.0000 N   0  0  0  0  0  0  0  0  0  0  0  0
   12.9827   -7.0217    0.0000 C   0  0  0  0  0  0  0  0  0  0  0  0
   13.6864   -6.5966    0.0000 C   0  0  0  0  0  0  0  0  0  0  0  0
   14.4085   -6.9955    0.0000 N   0  0  0  0  0  0  0  0  0  0  0  0
   11.5236   -5.4020    0.0000 N   0  0  0  0  0  0  0  0  0  0  0  0
  1  2  1  0  0  0  0 
  2  3  1  0  0  0  0 
  2  4  1  0  0  0  0 
  4  5  2  0  0  0  0 
  5  6  1  0  0  0  0 
  6  7  2  0  0  0  0 
  7  8  1  0  0  0  0 
  8  9  2  0  0  0  0 
  4  9  1  0  0  0  0 
  7 10  1  0  0  0  0 
 10 11  2  0  0  0  0 
 11 12  1  0  0  0  0 
 12 13  1  0  0  0  0 
 13 14  2  0  0  0  0 
 14 15  1  0  0  0  0 
 15 16  2  0  0  0  0 
 16 17  1  0  0  0  0 
 12 17  2  0  0  0  0 
 17 18  1  0  0  0  0 
 18 19  1  0  0  0  0 
 19 20  1  0  0  0  0 
 20 21  1  0  0  0  0 
 21 22  1  0  0  0  0 
 18 23  2  0  0  0  0 
 10 23  1  0  0  0  0 
M  END

>  <pIC50>
6.72124639905

$$$$

  CDK    9/16/09,10:7

 24 26  0  0  0  0  0  0  0  0999 V2000
    4.8573   -7.3458    0.0000 C   0  0  0  0  0  0  0  0  0  0  0  0
    4.8641   -8.1708    0.0000 N   0  0  0  0  0  0  0  0  0  0  0  0
    5.5813   -8.5779    0.0000 C   0  0  0  0  0  0  0  0  0  0  0  0
    4.1538   -8.5886    0.0000 C   0  0  0  0  0  0  0  0  0  0  0  0
    4.1606   -9.4137    0.0000 C   0  0  0  0  0  0  0  0  0  0  0  0
    3.4502   -9.8358    0.0000 C   0  0  0  0  0  0  0  0  0  0  0  0
    2.7329   -9.4286    0.0000 C   0  0  0  0  0  0  0  0  0  0  0  0
    2.7261   -8.6036    0.0000 C   0  0  0  0  0  0  0  0  0  0  0  0
    3.4365   -8.1857    0.0000 C   0  0  0  0  0  0  0  0  0  0  0  0
    2.0226   -9.8465    0.0000 C   0  0  0  0  0  0  0  0  0  0  0  0
    2.0294  -10.6714    0.0000 C   0  0  0  0  0  0  0  0  0  0  0  0
    1.3190  -11.0894    0.0000 C   0  0  0  0  0  0  0  0  0  0  0  0
    1.3258  -11.9143    0.0000 N   0  0  0  0  0  0  0  0  0  0  0  0
    0.6155  -12.3364    0.0000 C   0  0  0  0  0  0  0  0  0  0  0  0
   -0.1060  -11.9292    0.0000 C   0  0  0  0  0  0  0  0  0  0  0  0
   -0.1086  -11.1042    0.0000 C   0  0  0  0  0  0  0  0  0  0  0  0
    0.5976  -10.6863    0.0000 C   0  0  0  0  0  0  0  0  0  0  0  0
    0.5908   -9.8613    0.0000 C   0  0  0  0  0  0  0  0  0  0  0  0
   -0.1264   -9.4541    0.0000 O   0  0  0  0  0  0  0  0  0  0  0  0
   -0.8369   -9.8720    0.0000 C   0  0  0  0  0  0  0  0  0  0  0  0
   -1.5540   -9.4648    0.0000 C   0  0  0  0  0  0  0  0  0  0  0  0
   -2.2644   -9.8869    0.0000 C   0  0  0  0  0  0  0  0  0  0  0  0
   -2.9859   -9.4797    0.0000 O   0  0  0  0  0  0  0  0  0  0  0  0
    1.3012   -9.4393    0.0000 N   0  0  0  0  0  0  0  0  0  0  0  0
  1  2  1  0  0  0  0 
  2  3  1  0  0  0  0 
  2  4  1  0  0  0  0 
  4  5  1  0  0  0  0 
  5  6  2  0  0  0  0 
  6  7  1  0  0  0  0 
  7  8  2  0  0  0  0 
  8  9  1  0  0  0  0 
  4  9  2  0  0  0  0 
  7 10  1  0  0  0  0 
 10 11  2  0  0  0  0 
 11 12  1  0  0  0  0 
 12 13  1  0  0  0  0 
 13 14  2  0  0  0  0 
 14 15  1  0  0  0  0 
 15 16  2  0  0  0  0 
 16 17  1  0  0  0  0 
 12 17  2  0  0  0  0 
 17 18  1  0  0  0  0 
 18 19  1  0  0  0  0 
 19 20  1  0  0  0  0 
 20 21  1  0  0  0  0 
 21 22  1  0  0  0  0 
 22 23  1  0  0  0  0 
 18 24  2  0  0  0  0 
 10 24  1  0  0  0  0 
M  END

>  <pIC50>
6.69897000434

$$$$

  CDK    9/16/09,10:7

 34 37  0  0  0  0  0  0  0  0999 V2000
   17.1296  -11.8690    0.0000 C   0  0  0  0  0  0  0  0  0  0  0  0
   16.3781  -12.2052    0.0000 C   0  0  0  0  0  0  0  0  0  0  0  0
   15.7111  -11.7182    0.0000 O   0  0  0  0  0  0  0  0  0  0  0  0
   15.7956  -10.8991    0.0000 C   0  0  0  0  0  0  0  0  0  0  0  0
   16.5513  -10.5628    0.0000 O   0  0  0  0  0  0  0  0  0  0  0  0
   15.1287  -10.4121    0.0000 C   0  0  0  0  0  0  0  0  0  0  0  0
   14.3771  -10.7484    0.0000 C   0  0  0  0  0  0  0  0  0  0  0  0
   13.7102  -10.2656    0.0000 C   0  0  0  0  0  0  0  0  0  0  0  0
   12.9545  -10.5977    0.0000 N   0  0  0  0  0  0  0  0  0  0  0  0
   12.2415  -10.1868    0.0000 C   0  0  0  0  0  0  0  0  0  0  0  0
   11.6274  -10.7377    0.0000 C   0  0  0  0  0  0  0  0  0  0  0  0
   10.8204  -10.5660    0.0000 C   0  0  0  0  0  0  0  0  0  0  0  0
   10.5685   -9.7844    0.0000 C   0  0  0  0  0  0  0  0  0  0  0  0
   11.0513   -9.1174    0.0000 C   0  0  0  0  0  0  0  0  0  0  0  0
   11.8773   -9.1174    0.0000 O   0  0  0  0  0  0  0  0  0  0  0  0
   10.5685   -8.4504    0.0000 N   0  0  0  0  0  0  0  0  0  0  0  0
    9.7828   -8.7065    0.0000 C   0  0  0  0  0  0  0  0  0  0  0  0
    9.0697   -8.2916    0.0000 C   0  0  0  0  0  0  0  0  0  0  0  0
    8.3567   -8.7065    0.0000 C   0  0  0  0  0  0  0  0  0  0  0  0
    8.3567   -9.5283    0.0000 C   0  0  0  0  0  0  0  0  0  0  0  0
    9.0697   -9.9434    0.0000 C   0  0  0  0  0  0  0  0  0  0  0  0
    9.7828   -9.5283    0.0000 C   0  0  0  0  0  0  0  0  0  0  0  0
    7.6436   -9.9434    0.0000 S   0  0  0  0  0  0  0  0  0  0  0  0
    7.2286   -9.2262    0.0000 O   0  0  0  0  0  0  0  0  0  0  0  0
    8.0545  -10.6565    0.0000 O   0  0  0  0  0  0  0  0  0  0  0  0
    6.9264  -10.3543    0.0000 N   0  0  0  0  0  0  0  0  0  0  0  0
   11.9637  -11.4934    0.0000 C   0  0  0  0  0  0  0  0  0  0  0  0
   11.6274  -12.2448    0.0000 C   0  0  0  0  0  0  0  0  0  0  0  0
   12.1144  -12.9118    0.0000 C   0  0  0  0  0  0  0  0  0  0  0  0
   11.7782  -13.6633    0.0000 O   0  0  0  0  0  0  0  0  0  0  0  0
   12.2611  -14.3344    0.0000 C   0  0  0  0  0  0  0  0  0  0  0  0
   12.9336  -12.8273    0.0000 C   0  0  0  0  0  0  0  0  0  0  0  0
   13.2698  -12.0717    0.0000 C   0  0  0  0  0  0  0  0  0  0  0  0
   12.7870  -11.4047    0.0000 C   0  0  0  0  0  0  0  0  0  0  0  0
  1  2  1  0  0  0  0 
  2  3  1  0  0  0  0 
  3  4  1  0  0  0  0 
  4  5  2  0  0  0  0 
  4  6  1  0  0  0  0 
  6  7  1  0  0  0  0 
  7  8  1  0  0  0  0 
  8  9  1  0  0  0  0 
  9 10  1  0  0  0  0 
 10 11  2  0  0  0  0 
 11 12  1  0  0  0  0 
 12 13  2  0  0  0  0 
 13 14  1  0  0  0  0 
 14 15  2  0  0  0  0 
 14 16  1  0  0  0  0 
 16 17  1  0  0  0  0 
 17 18  1  0  0  0  0 
 18 19  2  0  0  0  0 
 19 20  1  0  0  0  0 
 20 21  2  0  0  0  0 
 21 22  1  0  0  0  0 
 13 22  1  0  0  0  0 
 17 22  2  0  0  0  0 
 20 23  1  0  0  0  0 
 23 24  2  0  0  0  0 
 23 25  2  0  0  0  0 
 23 26  1  0  0  0  0 
 11 27  1  0  0  0  0 
 27 28  1  0  0  0  0 
 28 29  2  0  0  0  0 
 29 30  1  0  0  0  0 
 30 31  1  0  0  0  0 
 29 32  1  0  0  0  0 
 32 33  2  0  0  0  0 
 33 34  1  0  0  0  0 
  9 34  1  0  0  0  0 
 27 34  2  0  0  0  0 
M  END

>  <pIC50>
6.69036983257

$$$$

  CDK    9/16/09,10:7

 25 26  0  0  0  0  0  0  0  0999 V2000
   -4.6055  -15.3453    0.0000 N   0  0  0  0  0  0  0  0  0  0  0  0
   -3.8792  -14.9540    0.0000 C   0  0  0  0  0  0  0  0  0  0  0  0
   -3.1751  -15.3895    0.0000 C   0  0  0  0  0  0  0  0  0  0  0  0
   -2.4488  -14.9983    0.0000 C   0  0  0  0  0  0  0  0  0  0  0  0
   -1.7447  -15.4337    0.0000 N   0  0  0  0  0  0  0  0  0  0  0  0
   -1.0185  -15.0425    0.0000 C   0  0  0  0  0  0  0  0  0  0  0  0
   -0.9905  -14.2144    0.0000 N   0  0  0  0  0  0  0  0  0  0  0  0
   -0.2642  -13.8232    0.0000 C   0  0  0  0  0  0  0  0  0  0  0  0
    0.4398  -14.2587    0.0000 C   0  0  0  0  0  0  0  0  0  0  0  0
    1.1661  -13.8674    0.0000 C   0  0  0  0  0  0  0  0  0  0  0  0
    1.8703  -14.3030    0.0000 O   0  0  0  0  0  0  0  0  0  0  0  0
    1.1941  -13.0394    0.0000 N   0  0  0  0  0  0  0  0  0  0  0  0
    0.4142  -15.0833    0.0000 C   0  0  0  0  0  0  0  0  0  0  0  0
    1.1183  -15.5187    0.0000 N   0  0  0  0  0  0  0  0  0  0  0  0
    1.0903  -16.3468    0.0000 C   0  0  0  0  0  0  0  0  0  0  0  0
    0.3640  -16.7380    0.0000 C   0  0  0  0  0  0  0  0  0  0  0  0
    0.3384  -17.5626    0.0000 C   0  0  0  0  0  0  0  0  0  0  0  0
    1.0425  -17.9981    0.0000 C   0  0  0  0  0  0  0  0  0  0  0  0
    1.7688  -17.6069    0.0000 C   0  0  0  0  0  0  0  0  0  0  0  0
    1.7945  -16.7824    0.0000 C   0  0  0  0  0  0  0  0  0  0  0  0
    2.4728  -18.0424    0.0000 C   0  0  0  0  0  0  0  0  0  0  0  0
    2.0396  -18.7430    0.0000 F   0  0  0  0  0  0  0  0  0  0  0  0
    2.9084  -17.3383    0.0000 F   0  0  0  0  0  0  0  0  0  0  0  0
    3.1770  -18.4779    0.0000 F   0  0  0  0  0  0  0  0  0  0  0  0
   -0.3143  -15.4781    0.0000 N   0  0  0  0  0  0  0  0  0  0  0  0
  1  2  1  0  0  0  0 
  2  3  1  0  0  0  0 
  3  4  1  0  0  0  0 
  4  5  1  0  0  0  0 
  5  6  1  0  0  0  0 
  6  7  1  0  0  0  0 
  7  8  2  0  0  0  0 
  8  9  1  0  0  0  0 
  9 10  1  0  0  0  0 
 10 11  2  0  0  0  0 
 10 12  1  0  0  0  0 
  9 13  2  0  0  0  0 
 13 14  1  0  0  0  0 
 14 15  1  0  0  0  0 
 15 16  2  0  0  0  0 
 16 17  1  0  0  0  0 
 17 18  2  0  0  0  0 
 18 19  1  0  0  0  0 
 19 20  2  0  0  0  0 
 15 20  1  0  0  0  0 
 19 21  1  0  0  0  0 
 21 22  1  0  0  0  0 
 21 23  1  0  0  0  0 
 21 24  1  0  0  0  0 
 13 25  1  0  0  0  0 
  6 25  2  0  0  0  0 
M  END

>  <pIC50>
6.63827216398

$$$$

  CDK    9/16/09,10:7

 22 24  0  0  0  0  0  0  0  0999 V2000
    8.2853  -12.5990    0.0000 N   0  0  0  0  0  0  0  0  0  0  0  0
    8.2853  -13.4240    0.0000 C   0  0  0  0  0  0  0  0  0  0  0  0
    7.5694  -13.8365    0.0000 C   0  0  0  0  0  0  0  0  0  0  0  0
    7.5694  -14.6615    0.0000 C   0  0  0  0  0  0  0  0  0  0  0  0
    6.8577  -15.0740    0.0000 N   0  0  0  0  0  0  0  0  0  0  0  0
    6.8577  -15.8990    0.0000 C   0  0  0  0  0  0  0  0  0  0  0  0
    7.5694  -16.3115    0.0000 N   0  0  0  0  0  0  0  0  0  0  0  0
    7.5694  -17.1365    0.0000 C   0  0  0  0  0  0  0  0  0  0  0  0
    6.8577  -17.5490    0.0000 C   0  0  0  0  0  0  0  0  0  0  0  0
    6.1418  -17.1365    0.0000 C   0  0  0  0  0  0  0  0  0  0  0  0
    5.4260  -17.5490    0.0000 N   0  0  0  0  0  0  0  0  0  0  0  0
    4.7101  -17.1365    0.0000 C   0  0  0  0  0  0  0  0  0  0  0  0
    4.7101  -16.3115    0.0000 C   0  0  0  0  0  0  0  0  0  0  0  0
    5.4260  -15.8990    0.0000 C   0  0  0  0  0  0  0  0  0  0  0  0
    6.1418  -16.3115    0.0000 C   0  0  0  0  0  0  0  0  0  0  0  0
    8.2853  -17.5490    0.0000 C   0  0  0  0  0  0  0  0  0  0  0  0
    8.9970  -17.1365    0.0000 C   0  0  0  0  0  0  0  0  0  0  0  0
    9.7128  -17.5490    0.0000 C   0  0  0  0  0  0  0  0  0  0  0  0
    9.7128  -18.3740    0.0000 C   0  0  0  0  0  0  0  0  0  0  0  0
    8.9970  -18.7865    0.0000 C   0  0  0  0  0  0  0  0  0  0  0  0
    8.9970  -19.6115    0.0000 Cl  0  0  0  0  0  0  0  0  0  0  0  0
    8.2853  -18.3740    0.0000 C   0  0  0  0  0  0  0  0  0  0  0  0
  1  2  1  0  0  0  0 
  2  3  1  0  0  0  0 
  3  4  1  0  0  0  0 
  4  5  1  0  0  0  0 
  5  6  1  0  0  0  0 
  6  7  2  0  0  0  0 
  7  8  1  0  0  0  0 
  8  9  2  0  0  0  0 
  9 10  1  0  0  0  0 
 10 11  2  0  0  0  0 
 11 12  1  0  0  0  0 
 12 13  2  0  0  0  0 
 13 14  1  0  0  0  0 
 14 15  2  0  0  0  0 
  6 15  1  0  0  0  0 
 10 15  1  0  0  0  0 
  8 16  1  0  0  0  0 
 16 17  2  0  0  0  0 
 17 18  1  0  0  0  0 
 18 19  2  0  0  0  0 
 19 20  1  0  0  0  0 
 20 21  1  0  0  0  0 
 20 22  2  0  0  0  0 
 16 22  1  0  0  0  0 
M  END

>  <pIC50>
6.58502665203

$$$$

  CDK    9/16/09,10:7

 26 29  0  0  0  0  0  0  0  0999 V2000
   16.1336  -12.9425    0.0000 C   0  0  0  0  0  0  0  0  0  0  0  0
   15.6140  -13.5831    0.0000 O   0  0  0  0  0  0  0  0  0  0  0  0
   15.9132  -14.3536    0.0000 C   0  0  0  0  0  0  0  0  0  0  0  0
   16.7263  -14.4819    0.0000 C   0  0  0  0  0  0  0  0  0  0  0  0
   17.0255  -15.2524    0.0000 C   0  0  0  0  0  0  0  0  0  0  0  0
   16.5060  -15.8930    0.0000 C   0  0  0  0  0  0  0  0  0  0  0  0
   15.6891  -15.7666    0.0000 C   0  0  0  0  0  0  0  0  0  0  0  0
   15.3936  -14.9942    0.0000 C   0  0  0  0  0  0  0  0  0  0  0  0
   15.3177  -16.5014    0.0000 C   0  0  0  0  0  0  0  0  0  0  0  0
   14.5021  -16.6300    0.0000 C   0  0  0  0  0  0  0  0  0  0  0  0
   14.2092  -17.4013    0.0000 C   0  0  0  0  0  0  0  0  0  0  0  0
   14.6594  -18.0945    0.0000 C   0  0  0  0  0  0  0  0  0  0  0  0
   15.4845  -18.1355    0.0000 O   0  0  0  0  0  0  0  0  0  0  0  0
   14.1398  -18.7351    0.0000 N   0  0  0  0  0  0  0  0  0  0  0  0
   13.3686  -18.4421    0.0000 C   0  0  0  0  0  0  0  0  0  0  0  0
   12.6342  -18.8181    0.0000 C   0  0  0  0  0  0  0  0  0  0  0  0
   11.9409  -18.3688    0.0000 C   0  0  0  0  0  0  0  0  0  0  0  0
   11.9838  -17.5475    0.0000 C   0  0  0  0  0  0  0  0  0  0  0  0
   12.7180  -17.1715    0.0000 C   0  0  0  0  0  0  0  0  0  0  0  0
   13.4096  -17.6170    0.0000 C   0  0  0  0  0  0  0  0  0  0  0  0
   11.2904  -17.0982    0.0000 C   0  0  0  0  0  0  0  0  0  0  0  0
   11.3314  -16.2731    0.0000 O   0  0  0  0  0  0  0  0  0  0  0  0
   10.5561  -17.4742    0.0000 O   0  0  0  0  0  0  0  0  0  0  0  0
   15.9004  -17.0844    0.0000 C   0  0  0  0  0  0  0  0  0  0  0  0
   16.6346  -16.7085    0.0000 N   0  0  0  0  0  0  0  0  0  0  0  0
   17.3712  -17.0836    0.0000 C   0  0  0  0  0  0  0  0  0  0  0  0
  1  2  1  0  0  0  0 
  2  3  1  0  0  0  0 
  3  4  1  0  0  0  0 
  4  5  2  0  0  0  0 
  5  6  1  0  0  0  0 
  6  7  2  0  0  0  0 
  7  8  1  0  0  0  0 
  3  8  2  0  0  0  0 
  7  9  1  0  0  0  0 
  9 10  1  0  0  0  0 
 10 11  2  0  0  0  0 
 11 12  1  0  0  0  0 
 12 13  2  0  0  0  0 
 12 14  1  0  0  0  0 
 14 15  1  0  0  0  0 
 15 16  1  0  0  0  0 
 16 17  2  0  0  0  0 
 17 18  1  0  0  0  0 
 18 19  2  0  0  0  0 
 19 20  1  0  0  0  0 
 11 20  1  0  0  0  0 
 15 20  2  0  0  0  0 
 18 21  1  0  0  0  0 
 21 22  2  0  0  0  0 
 21 23  1  0  0  0  0 
  9 24  2  0  0  0  0 
 24 25  1  0  0  0  0 
  6 25  1  0  0  0  0 
 25 26  1  0  0  0  0 
M  END

>  <pIC50>
6.56383735296

$$$$

  CDK    5/12/10,14:52

 20 21  0  0  0  0  0  0  0  0999 V2000
   12.7083  -22.6238    0.0000 C   0  0  0  0  0  0  0  0  0  0  0  0
   12.7070  -23.4514    0.0000 C   0  0  0  0  0  0  0  0  0  0  0  0
   13.4200  -23.8644    0.0000 C   0  0  0  0  0  0  0  0  0  0  0  0
   14.1394  -23.4509    0.0000 C   0  0  0  0  0  0  0  0  0  0  0  0
   14.1362  -22.6198    0.0000 C   0  0  0  0  0  0  0  0  0  0  0  0
   13.4180  -22.2110    0.0000 C   0  0  0  0  0  0  0  0  0  0  0  0
   14.8542  -23.8627    0.0000 N   0  0  0  0  0  0  0  0  0  0  0  0
   14.8550  -24.6877    0.0000 C   0  0  0  0  0  0  0  0  0  0  0  0
   14.1396  -25.0984    0.0000 N   0  0  0  0  0  0  0  0  0  0  0  0
   14.1400  -25.9226    0.0000 C   0  0  0  0  0  0  0  0  0  0  0  0
   14.8554  -26.3354    0.0000 N   0  0  0  0  0  0  0  0  0  0  0  0
   15.5718  -25.9178    0.0000 C   0  0  0  0  0  0  0  0  0  0  0  0
   15.5680  -25.0949    0.0000 C   0  0  0  0  0  0  0  0  0  0  0  0
   16.2805  -24.6789    0.0000 C   0  0  0  0  0  0  0  0  0  0  0  0
   16.9969  -25.0880    0.0000 N   0  0  0  0  0  0  0  0  0  0  0  0
   16.2765  -23.8539    0.0000 O   0  0  0  0  0  0  0  0  0  0  0  0
   13.4257  -26.3355    0.0000 N   0  0  0  0  0  0  0  0  0  0  0  0
   12.7110  -25.9233    0.0000 C   0  0  0  0  0  0  0  0  0  0  0  0
   11.9968  -26.3360    0.0000 C   0  0  0  0  0  0  0  0  0  0  0  0
   11.2821  -25.9238    0.0000 N   0  0  0  0  0  0  0  0  0  0  0  0
  9 10  1  0  0  0  0 
  2  3  1  0  0  0  0 
 10 11  2  0  0  0  0 
  5  6  2  0  0  0  0 
 11 12  1  0  0  0  0 
  6  1  1  0  0  0  0 
 12 13  2  0  0  0  0 
 13  8  1  0  0  0  0 
  1  2  2  0  0  0  0 
 13 14  1  0  0  0  0 
  4  7  1  0  0  0  0 
 14 15  1  0  0  0  0 
  3  4  2  0  0  0  0 
 14 16  2  0  0  0  0 
  7  8  1  0  0  0  0 
 10 17  1  0  0  0  0 
 17 18  1  0  0  0  0 
  8  9  2  0  0  0  0 
 18 19  1  0  0  0  0 
  4  5  1  0  0  0  0 
 19 20  1  0  0  0  0 
M  END

>  <pIC50>
6.55284196866

$$$$

  CDK    9/16/09,10:7

 37 41  0  0  0  0  0  0  0  0999 V2000
    4.0489  -20.4572    0.0000 C   0  0  0  0  0  0  0  0  0  0  0  0
    4.7652  -20.8717    0.0000 O   0  0  0  0  0  0  0  0  0  0  0  0
    4.7652  -21.6966    0.0000 C   0  0  0  0  0  0  0  0  0  0  0  0
    5.4816  -22.1071    0.0000 C   0  0  0  0  0  0  0  0  0  0  0  0
    5.4816  -22.9321    0.0000 C   0  0  0  0  0  0  0  0  0  0  0  0
    6.1939  -23.3466    0.0000 N   0  0  0  0  0  0  0  0  0  0  0  0
    6.9061  -22.9321    0.0000 C   0  0  0  0  0  0  0  0  0  0  0  0
    6.9061  -22.1071    0.0000 N   0  0  0  0  0  0  0  0  0  0  0  0
    7.6225  -21.6966    0.0000 C   0  0  0  0  0  0  0  0  0  0  0  0
    7.6225  -20.8717    0.0000 N   0  0  0  0  0  0  0  0  0  0  0  0
    6.9061  -20.4572    0.0000 C   0  0  0  0  0  0  0  0  0  0  0  0
    6.1939  -20.8717    0.0000 C   0  0  0  0  0  0  0  0  0  0  0  0
    5.4816  -20.4572    0.0000 C   0  0  0  0  0  0  0  0  0  0  0  0
    5.4816  -19.6322    0.0000 C   0  0  0  0  0  0  0  0  0  0  0  0
    6.1939  -19.2217    0.0000 C   0  0  0  0  0  0  0  0  0  0  0  0
    6.9061  -19.6322    0.0000 C   0  0  0  0  0  0  0  0  0  0  0  0
    7.6225  -19.2217    0.0000 N   0  0  0  0  0  0  0  0  0  0  0  0
    8.3348  -22.1071    0.0000 N   0  0  0  0  0  0  0  0  0  0  0  0
    9.1196  -21.8554    0.0000 C   0  0  0  0  0  0  0  0  0  0  0  0
    9.6060  -22.5216    0.0000 C   0  0  0  0  0  0  0  0  0  0  0  0
    9.1196  -23.1920    0.0000 N   0  0  0  0  0  0  0  0  0  0  0  0
    8.3348  -22.9321    0.0000 C   0  0  0  0  0  0  0  0  0  0  0  0
    7.6225  -23.3466    0.0000 C   0  0  0  0  0  0  0  0  0  0  0  0
    7.6225  -24.1715    0.0000 C   0  0  0  0  0  0  0  0  0  0  0  0
    8.3348  -24.5820    0.0000 O   0  0  0  0  0  0  0  0  0  0  0  0
    6.9061  -24.5820    0.0000 N   0  0  0  0  0  0  0  0  0  0  0  0
   10.4309  -22.5216    0.0000 C   0  0  0  0  0  0  0  0  0  0  0  0
   10.8413  -21.8094    0.0000 C   0  0  0  0  0  0  0  0  0  0  0  0
   11.6663  -21.8094    0.0000 C   0  0  0  0  0  0  0  0  0  0  0  0
   12.0809  -22.5216    0.0000 C   0  0  0  0  0  0  0  0  0  0  0  0
   11.6663  -23.2380    0.0000 C   0  0  0  0  0  0  0  0  0  0  0  0
   10.8413  -23.2380    0.0000 C   0  0  0  0  0  0  0  0  0  0  0  0
    4.7652  -23.3466    0.0000 C   0  0  0  0  0  0  0  0  0  0  0  0
    4.0489  -22.9321    0.0000 C   0  0  0  0  0  0  0  0  0  0  0  0
    3.3366  -23.3466    0.0000 O   0  0  0  0  0  0  0  0  0  0  0  0
    2.6203  -22.9321    0.0000 C   0  0  0  0  0  0  0  0  0  0  0  0
    4.0489  -22.1071    0.0000 C   0  0  0  0  0  0  0  0  0  0  0  0
  1  2  1  0  0  0  0 
  2  3  1  0  0  0  0 
  3  4  1  0  0  0  0 
  4  5  2  0  0  0  0 
  5  6  1  0  0  0  0 
  6  7  1  0  0  0  0 
  7  8  1  0  0  0  0 
  8  9  2  0  0  0  0 
  9 10  1  0  0  0  0 
 11 10  1  6  0  0  0 
 11 12  1  0  0  0  0 
 12 13  1  0  0  0  0 
 13 14  1  0  0  0  0 
 14 15  1  0  0  0  0 
 15 16  1  0  0  0  0 
 11 16  1  0  0  0  0 
 16 17  1  6  0  0  0 
  9 18  1  0  0  0  0 
 18 19  1  0  0  0  0 
 19 20  2  0  0  0  0 
 20 21  1  0  0  0  0 
 21 22  2  0  0  0  0 
 18 22  1  0  0  0  0 
 22 23  1  0  0  0  0 
  7 23  2  0  0  0  0 
 23 24  1  0  0  0  0 
 24 25  2  0  0  0  0 
 24 26  1  0  0  0  0 
 20 27  1  0  0  0  0 
 27 28  2  0  0  0  0 
 28 29  1  0  0  0  0 
 29 30  2  0  0  0  0 
 30 31  1  0  0  0  0 
 31 32  2  0  0  0  0 
 27 32  1  0  0  0  0 
  5 33  1  0  0  0  0 
 33 34  2  0  0  0  0 
 34 35  1  0  0  0  0 
 35 36  1  0  0  0  0 
 34 37  1  0  0  0  0 
  3 37  2  0  0  0  0 
M  END

>  <pIC50>
6.42021640338

$$$$

  CDK    9/16/09,10:7

 21 23  0  0  0  0  0  0  0  0999 V2000
   16.6587  -18.5839    0.0000 N   0  0  0  0  0  0  0  0  0  0  0  0
   16.6587  -19.4090    0.0000 C   0  0  0  0  0  0  0  0  0  0  0  0
   15.9423  -19.8195    0.0000 C   0  0  0  0  0  0  0  0  0  0  0  0
   15.9423  -20.6446    0.0000 C   0  0  0  0  0  0  0  0  0  0  0  0
   15.2299  -21.0551    0.0000 N   0  0  0  0  0  0  0  0  0  0  0  0
   15.2299  -21.8801    0.0000 C   0  0  0  0  0  0  0  0  0  0  0  0
   15.9423  -22.2905    0.0000 N   0  0  0  0  0  0  0  0  0  0  0  0
   15.9423  -23.1156    0.0000 C   0  0  0  0  0  0  0  0  0  0  0  0
   15.2299  -23.5261    0.0000 C   0  0  0  0  0  0  0  0  0  0  0  0
   14.5176  -23.1156    0.0000 C   0  0  0  0  0  0  0  0  0  0  0  0
   13.8053  -23.5261    0.0000 N   0  0  0  0  0  0  0  0  0  0  0  0
   13.0888  -23.1156    0.0000 C   0  0  0  0  0  0  0  0  0  0  0  0
   13.0888  -22.2905    0.0000 C   0  0  0  0  0  0  0  0  0  0  0  0
   13.8053  -21.8801    0.0000 C   0  0  0  0  0  0  0  0  0  0  0  0
   14.5176  -22.2905    0.0000 C   0  0  0  0  0  0  0  0  0  0  0  0
   16.6587  -23.5261    0.0000 C   0  0  0  0  0  0  0  0  0  0  0  0
   17.3711  -23.1156    0.0000 C   0  0  0  0  0  0  0  0  0  0  0  0
   18.0833  -23.5261    0.0000 C   0  0  0  0  0  0  0  0  0  0  0  0
   18.0833  -24.3512    0.0000 C   0  0  0  0  0  0  0  0  0  0  0  0
   17.3711  -24.7616    0.0000 C   0  0  0  0  0  0  0  0  0  0  0  0
   16.6587  -24.3512    0.0000 C   0  0  0  0  0  0  0  0  0  0  0  0
  1  2  1  0  0  0  0 
  2  3  1  0  0  0  0 
  3  4  1  0  0  0  0 
  4  5  1  0  0  0  0 
  5  6  1  0  0  0  0 
  6  7  2  0  0  0  0 
  7  8  1  0  0  0  0 
  8  9  2  0  0  0  0 
  9 10  1  0  0  0  0 
 10 11  1  0  0  0  0 
 11 12  2  0  0  0  0 
 12 13  1  0  0  0  0 
 13 14  2  0  0  0  0 
 14 15  1  0  0  0  0 
  6 15  1  0  0  0  0 
 10 15  2  0  0  0  0 
  8 16  1  0  0  0  0 
 16 17  2  0  0  0  0 
 17 18  1  0  0  0  0 
 18 19  2  0  0  0  0 
 19 20  1  0  0  0  0 
 20 21  2  0  0  0  0 
 16 21  1  0  0  0  0 
M  END

>  <pIC50>
6.38721614328

$$$$

  CDK    9/16/09,10:7

 20 22  0  0  0  0  0  0  0  0999 V2000
    0.5066    0.9170    0.0000 N   0  0  0  0  0  0  0  0  0  0  0  0
    0.5066    0.0893    0.0000 C   0  0  0  0  0  0  0  0  0  0  0  0
   -0.2080   -0.3224    0.0000 C   0  0  0  0  0  0  0  0  0  0  0  0
   -0.2080   -1.1501    0.0000 C   0  0  0  0  0  0  0  0  0  0  0  0
   -0.9267   -1.5619    0.0000 N   0  0  0  0  0  0  0  0  0  0  0  0
   -0.9267   -2.3895    0.0000 C   0  0  0  0  0  0  0  0  0  0  0  0
   -0.2080   -2.8012    0.0000 N   0  0  0  0  0  0  0  0  0  0  0  0
   -0.2080   -3.6289    0.0000 C   0  0  0  0  0  0  0  0  0  0  0  0
   -0.9267   -4.0407    0.0000 C   0  0  0  0  0  0  0  0  0  0  0  0
   -1.6413   -3.6289    0.0000 C   0  0  0  0  0  0  0  0  0  0  0  0
   -2.3559   -4.0407    0.0000 N   0  0  0  0  0  0  0  0  0  0  0  0
   -3.0704   -3.6289    0.0000 C   0  0  0  0  0  0  0  0  0  0  0  0
   -3.0704   -2.8012    0.0000 C   0  0  0  0  0  0  0  0  0  0  0  0
   -2.3559   -2.3895    0.0000 C   0  0  0  0  0  0  0  0  0  0  0  0
   -1.6413   -2.8012    0.0000 C   0  0  0  0  0  0  0  0  0  0  0  0
    0.5066   -4.0407    0.0000 C   0  0  0  0  0  0  0  0  0  0  0  0
    1.2596   -3.7037    0.0000 C   0  0  0  0  0  0  0  0  0  0  0  0
    1.8117   -4.3190    0.0000 C   0  0  0  0  0  0  0  0  0  0  0  0
    1.4000   -5.0336    0.0000 C   0  0  0  0  0  0  0  0  0  0  0  0
    0.5912   -4.8615    0.0000 S   0  0  0  0  0  0  0  0  0  0  0  0
  1  2  1  0  0  0  0 
  2  3  1  0  0  0  0 
  3  4  1  0  0  0  0 
  4  5  1  0  0  0  0 
  5  6  1  0  0  0  0 
  6  7  2  0  0  0  0 
  7  8  1  0  0  0  0 
  8  9  2  0  0  0  0 
  9 10  1  0  0  0  0 
 10 11  1  0  0  0  0 
 11 12  2  0  0  0  0 
 12 13  1  0  0  0  0 
 13 14  2  0  0  0  0 
 14 15  1  0  0  0  0 
  6 15  1  0  0  0  0 
 10 15  2  0  0  0  0 
  8 16  1  0  0  0  0 
 16 17  2  0  0  0  0 
 17 18  1  0  0  0  0 
 18 19  2  0  0  0  0 
 19 20  1  0  0  0  0 
 16 20  1  0  0  0  0 
M  END

>  <pIC50>
6.35654732351

$$$$

  CDK    9/16/09,10:7

 29 32  0  0  0  0  0  0  0  0999 V2000
   12.7127   -1.5394    0.0000 C   0  0  0  0  0  0  0  0  0  0  0  0
   12.0045   -1.9541    0.0000 S   0  0  0  0  0  0  0  0  0  0  0  0
   11.5900   -1.2375    0.0000 O   0  0  0  0  0  0  0  0  0  0  0  0
   12.4150   -2.6623    0.0000 O   0  0  0  0  0  0  0  0  0  0  0  0
   11.2881   -2.3645    0.0000 C   0  0  0  0  0  0  0  0  0  0  0  0
   11.2881   -3.1895    0.0000 C   0  0  0  0  0  0  0  0  0  0  0  0
   10.5717   -3.6042    0.0000 C   0  0  0  0  0  0  0  0  0  0  0  0
    9.8593   -3.1895    0.0000 C   0  0  0  0  0  0  0  0  0  0  0  0
    9.8593   -2.3645    0.0000 C   0  0  0  0  0  0  0  0  0  0  0  0
    9.1429   -1.9541    0.0000 O   0  0  0  0  0  0  0  0  0  0  0  0
    8.4263   -2.3645    0.0000 C   0  0  0  0  0  0  0  0  0  0  0  0
    8.4263   -3.1895    0.0000 C   0  0  0  0  0  0  0  0  0  0  0  0
    7.7141   -3.6042    0.0000 C   0  0  0  0  0  0  0  0  0  0  0  0
    6.9975   -3.1895    0.0000 C   0  0  0  0  0  0  0  0  0  0  0  0
    6.9975   -2.3645    0.0000 C   0  0  0  0  0  0  0  0  0  0  0  0
    6.2853   -1.9541    0.0000 N   0  0  0  0  0  0  0  0  0  0  0  0
    5.5687   -2.3645    0.0000 C   0  0  0  0  0  0  0  0  0  0  0  0
    5.5687   -3.1895    0.0000 N   0  0  0  0  0  0  0  0  0  0  0  0
    4.8565   -3.6042    0.0000 C   0  0  0  0  0  0  0  0  0  0  0  0
    4.1400   -3.1895    0.0000 C   0  0  0  0  0  0  0  0  0  0  0  0
    4.1400   -2.3645    0.0000 C   0  0  0  0  0  0  0  0  0  0  0  0
    4.8565   -1.9541    0.0000 N   0  0  0  0  0  0  0  0  0  0  0  0
    3.4277   -1.9541    0.0000 C   0  0  0  0  0  0  0  0  0  0  0  0
    2.6728   -2.2858    0.0000 N   0  0  0  0  0  0  0  0  0  0  0  0
    2.1225   -1.6724    0.0000 C   0  0  0  0  0  0  0  0  0  0  0  0
    2.5329   -0.9601    0.0000 C   0  0  0  0  0  0  0  0  0  0  0  0
    3.3391   -1.1317    0.0000 S   0  0  0  0  0  0  0  0  0  0  0  0
    7.7141   -1.9541    0.0000 C   0  0  0  0  0  0  0  0  0  0  0  0
   10.5717   -1.9541    0.0000 C   0  0  0  0  0  0  0  0  0  0  0  0
  1  2  1  0  0  0  0 
  2  3  2  0  0  0  0 
  2  4  2  0  0  0  0 
  2  5  1  0  0  0  0 
  5  6  2  0  0  0  0 
  6  7  1  0  0  0  0 
  7  8  2  0  0  0  0 
  8  9  1  0  0  0  0 
  9 10  1  0  0  0  0 
 10 11  1  0  0  0  0 
 11 12  2  0  0  0  0 
 12 13  1  0  0  0  0 
 13 14  2  0  0  0  0 
 14 15  1  0  0  0  0 
 15 16  1  0  0  0  0 
 16 17  1  0  0  0  0 
 17 18  2  0  0  0  0 
 18 19  1  0  0  0  0 
 19 20  2  0  0  0  0 
 20 21  1  0  0  0  0 
 21 22  2  0  0  0  0 
 17 22  1  0  0  0  0 
 21 23  1  0  0  0  0 
 23 24  2  0  0  0  0 
 24 25  1  0  0  0  0 
 25 26  2  0  0  0  0 
 26 27  1  0  0  0  0 
 23 27  1  0  0  0  0 
 15 28  2  0  0  0  0 
 11 28  1  0  0  0  0 
  9 29  2  0  0  0  0 
  5 29  1  0  0  0  0 
M  END

>  <pIC50>
6.30102999566

$$$$

  CDK    9/16/09,10:7

 26 29  0  0  0  0  0  0  0  0999 V2000
    5.2205   -8.6736    0.0000 C   0  0  0  0  0  0  0  0  0  0  0  0
    4.5123   -8.2631    0.0000 O   0  0  0  0  0  0  0  0  0  0  0  0
    3.7958   -8.6736    0.0000 C   0  0  0  0  0  0  0  0  0  0  0  0
    3.7958   -9.4986    0.0000 C   0  0  0  0  0  0  0  0  0  0  0  0
    3.0794   -9.9132    0.0000 C   0  0  0  0  0  0  0  0  0  0  0  0
    2.3670   -9.4986    0.0000 C   0  0  0  0  0  0  0  0  0  0  0  0
    2.3670   -8.6736    0.0000 C   0  0  0  0  0  0  0  0  0  0  0  0
    1.6506   -8.2631    0.0000 N   0  0  0  0  0  0  0  0  0  0  0  0
    0.9342   -8.6736    0.0000 C   0  0  0  0  0  0  0  0  0  0  0  0
    0.9342   -9.4986    0.0000 N   0  0  0  0  0  0  0  0  0  0  0  0
    0.2218   -9.9132    0.0000 C   0  0  0  0  0  0  0  0  0  0  0  0
   -0.4946   -9.4986    0.0000 C   0  0  0  0  0  0  0  0  0  0  0  0
   -0.4946   -8.6736    0.0000 C   0  0  0  0  0  0  0  0  0  0  0  0
    0.2218   -8.2631    0.0000 N   0  0  0  0  0  0  0  0  0  0  0  0
   -1.2070   -8.2631    0.0000 C   0  0  0  0  0  0  0  0  0  0  0  0
   -1.9577   -8.5949    0.0000 N   0  0  0  0  0  0  0  0  0  0  0  0
   -2.5122   -7.9815    0.0000 C   0  0  0  0  0  0  0  0  0  0  0  0
   -2.1018   -7.2692    0.0000 C   0  0  0  0  0  0  0  0  0  0  0  0
   -1.2956   -7.4407    0.0000 S   0  0  0  0  0  0  0  0  0  0  0  0
    3.0794   -8.2631    0.0000 C   0  0  0  0  0  0  0  0  0  0  0  0
    5.9370   -8.2631    0.0000 C   0  0  0  0  0  0  0  0  0  0  0  0
    5.9370   -7.4339    0.0000 C   0  0  0  0  0  0  0  0  0  0  0  0
    6.6534   -7.0234    0.0000 C   0  0  0  0  0  0  0  0  0  0  0  0
    7.3658   -7.4380    0.0000 C   0  0  0  0  0  0  0  0  0  0  0  0
    7.3658   -8.2631    0.0000 C   0  0  0  0  0  0  0  0  0  0  0  0
    6.6534   -8.6736    0.0000 C   0  0  0  0  0  0  0  0  0  0  0  0
  1  2  1  0  0  0  0 
  2  3  1  0  0  0  0 
  3  4  2  0  0  0  0 
  4  5  1  0  0  0  0 
  5  6  2  0  0  0  0 
  6  7  1  0  0  0  0 
  7  8  1  0  0  0  0 
  8  9  1  0  0  0  0 
  9 10  2  0  0  0  0 
 10 11  1  0  0  0  0 
 11 12  2  0  0  0  0 
 12 13  1  0  0  0  0 
 13 14  2  0  0  0  0 
  9 14  1  0  0  0  0 
 13 15  1  0  0  0  0 
 15 16  2  0  0  0  0 
 16 17  1  0  0  0  0 
 17 18  2  0  0  0  0 
 18 19  1  0  0  0  0 
 15 19  1  0  0  0  0 
  7 20  2  0  0  0  0 
  3 20  1  0  0  0  0 
  1 21  1  0  0  0  0 
 21 22  2  0  0  0  0 
 22 23  1  0  0  0  0 
 23 24  2  0  0  0  0 
 24 25  1  0  0  0  0 
 25 26  2  0  0  0  0 
 21 26  1  0  0  0  0 
M  END

>  <pIC50>
6.30102999566

$$$$

  CDK    9/16/09,10:7

 28 32  0  0  0  0  0  0  0  0999 V2000
   18.2266   -8.9971    0.0000 C   0  0  0  0  0  0  0  0  0  0  0  0
   17.7384   -9.6657    0.0000 O   0  0  0  0  0  0  0  0  0  0  0  0
   16.9508   -9.4131    0.0000 C   0  0  0  0  0  0  0  0  0  0  0  0
   16.2359   -9.8250    0.0000 C   0  0  0  0  0  0  0  0  0  0  0  0
   15.5212   -9.4131    0.0000 C   0  0  0  0  0  0  0  0  0  0  0  0
   15.5212   -8.5852    0.0000 C   0  0  0  0  0  0  0  0  0  0  0  0
   14.8064   -8.1733    0.0000 O   0  0  0  0  0  0  0  0  0  0  0  0
   14.0875   -8.5852    0.0000 C   0  0  0  0  0  0  0  0  0  0  0  0
   14.0875   -9.4131    0.0000 C   0  0  0  0  0  0  0  0  0  0  0  0
   13.3726   -9.8250    0.0000 C   0  0  0  0  0  0  0  0  0  0  0  0
   12.6578   -9.4131    0.0000 C   0  0  0  0  0  0  0  0  0  0  0  0
   11.9431   -9.8250    0.0000 N   0  0  0  0  0  0  0  0  0  0  0  0
   11.2283   -9.4131    0.0000 C   0  0  0  0  0  0  0  0  0  0  0  0
   10.5093   -9.8250    0.0000 N   0  0  0  0  0  0  0  0  0  0  0  0
    9.7945   -9.4131    0.0000 C   0  0  0  0  0  0  0  0  0  0  0  0
    9.7945   -8.5852    0.0000 C   0  0  0  0  0  0  0  0  0  0  0  0
   10.5093   -8.1733    0.0000 C   0  0  0  0  0  0  0  0  0  0  0  0
   11.2283   -8.5852    0.0000 N   0  0  0  0  0  0  0  0  0  0  0  0
   10.5093   -7.3454    0.0000 C   0  0  0  0  0  0  0  0  0  0  0  0
    9.8407   -6.8572    0.0000 N   0  0  0  0  0  0  0  0  0  0  0  0
   10.0974   -6.0737    0.0000 C   0  0  0  0  0  0  0  0  0  0  0  0
   10.9212   -6.0737    0.0000 C   0  0  0  0  0  0  0  0  0  0  0  0
   11.1779   -6.8572    0.0000 C   0  0  0  0  0  0  0  0  0  0  0  0
   12.6578   -8.5852    0.0000 C   0  0  0  0  0  0  0  0  0  0  0  0
   13.3726   -8.1733    0.0000 C   0  0  0  0  0  0  0  0  0  0  0  0
   16.2359   -8.1733    0.0000 C   0  0  0  0  0  0  0  0  0  0  0  0
   16.9508   -8.5852    0.0000 C   0  0  0  0  0  0  0  0  0  0  0  0
   17.7384   -8.3285    0.0000 O   0  0  0  0  0  0  0  0  0  0  0  0
  1  2  1  0  0  0  0 
  2  3  1  0  0  0  0 
  3  4  1  0  0  0  0 
  4  5  2  0  0  0  0 
  5  6  1  0  0  0  0 
  6  7  1  0  0  0  0 
  7  8  1  0  0  0  0 
  8  9  1  0  0  0  0 
  9 10  2  0  0  0  0 
 10 11  1  0  0  0  0 
 11 12  1  0  0  0  0 
 12 13  1  0  0  0  0 
 13 14  1  0  0  0  0 
 14 15  2  0  0  0  0 
 15 16  1  0  0  0  0 
 16 17  2  0  0  0  0 
 17 18  1  0  0  0  0 
 13 18  2  0  0  0  0 
 17 19  1  0  0  0  0 
 19 20  1  0  0  0  0 
 20 21  1  0  0  0  0 
 21 22  2  0  0  0  0 
 22 23  1  0  0  0  0 
 19 23  2  0  0  0  0 
 11 24  2  0  0  0  0 
 24 25  1  0  0  0  0 
  8 25  2  0  0  0  0 
  6 26  2  0  0  0  0 
 26 27  1  0  0  0  0 
  3 27  2  0  0  0  0 
 27 28  1  0  0  0  0 
  1 28  1  0  0  0  0 
M  END

>  <pIC50>
6.30102999566

$$$$

  CDK    9/16/09,10:7

 23 25  0  0  0  0  0  0  0  0999 V2000
    4.1253  -10.5096    0.0000 C   0  0  0  0  0  0  0  0  0  0  0  0
    3.4250  -10.9435    0.0000 O   0  0  0  0  0  0  0  0  0  0  0  0
    3.4492  -11.7646    0.0000 C   0  0  0  0  0  0  0  0  0  0  0  0
    4.1759  -12.1552    0.0000 C   0  0  0  0  0  0  0  0  0  0  0  0
    4.2023  -12.9798    0.0000 C   0  0  0  0  0  0  0  0  0  0  0  0
    3.5021  -13.4137    0.0000 C   0  0  0  0  0  0  0  0  0  0  0  0
    2.7754  -13.0231    0.0000 C   0  0  0  0  0  0  0  0  0  0  0  0
    2.7489  -12.1985    0.0000 C   0  0  0  0  0  0  0  0  0  0  0  0
    2.0751  -13.4570    0.0000 C   0  0  0  0  0  0  0  0  0  0  0  0
    2.1015  -14.2817    0.0000 C   0  0  0  0  0  0  0  0  0  0  0  0
    1.4013  -14.7155    0.0000 C   0  0  0  0  0  0  0  0  0  0  0  0
    1.4276  -15.5401    0.0000 N   0  0  0  0  0  0  0  0  0  0  0  0
    0.7274  -15.9741    0.0000 C   0  0  0  0  0  0  0  0  0  0  0  0
    0.0007  -15.5834    0.0000 C   0  0  0  0  0  0  0  0  0  0  0  0
   -0.0257  -14.7589    0.0000 C   0  0  0  0  0  0  0  0  0  0  0  0
    0.6745  -14.3249    0.0000 C   0  0  0  0  0  0  0  0  0  0  0  0
    0.6482  -13.5003    0.0000 C   0  0  0  0  0  0  0  0  0  0  0  0
   -0.0763  -13.1131    0.0000 N   0  0  0  0  0  0  0  0  0  0  0  0
   -0.7766  -13.5471    0.0000 C   0  0  0  0  0  0  0  0  0  0  0  0
   -1.5032  -13.1565    0.0000 C   0  0  0  0  0  0  0  0  0  0  0  0
   -2.2035  -13.5903    0.0000 C   0  0  0  0  0  0  0  0  0  0  0  0
   -2.9280  -13.2033    0.0000 N   0  0  0  0  0  0  0  0  0  0  0  0
    1.3485  -13.0664    0.0000 N   0  0  0  0  0  0  0  0  0  0  0  0
  1  2  1  0  0  0  0 
  2  3  1  0  0  0  0 
  3  4  1  0  0  0  0 
  4  5  2  0  0  0  0 
  5  6  1  0  0  0  0 
  6  7  2  0  0  0  0 
  7  8  1  0  0  0  0 
  3  8  2  0  0  0  0 
  7  9  1  0  0  0  0 
  9 10  2  0  0  0  0 
 10 11  1  0  0  0  0 
 11 12  1  0  0  0  0 
 12 13  2  0  0  0  0 
 13 14  1  0  0  0  0 
 14 15  2  0  0  0  0 
 15 16  1  0  0  0  0 
 11 16  2  0  0  0  0 
 16 17  1  0  0  0  0 
 17 18  1  0  0  0  0 
 18 19  1  0  0  0  0 
 19 20  1  0  0  0  0 
 20 21  1  0  0  0  0 
 21 22  1  0  0  0  0 
 17 23  2  0  0  0  0 
  9 23  1  0  0  0  0 
M  END

>  <pIC50>
6.30102999566

$$$$

  CDK    9/16/09,10:7

 26 29  0  0  0  0  0  0  0  0999 V2000
   13.2646  -13.7040    0.0000 C   0  0  0  0  0  0  0  0  0  0  0  0
   13.9777  -14.1190    0.0000 C   0  0  0  0  0  0  0  0  0  0  0  0
   14.6949  -13.7040    0.0000 N   0  0  0  0  0  0  0  0  0  0  0  0
   14.7794  -12.8849    0.0000 C   0  0  0  0  0  0  0  0  0  0  0  0
   15.5864  -12.7132    0.0000 C   0  0  0  0  0  0  0  0  0  0  0  0
   15.9973  -13.4262    0.0000 C   0  0  0  0  0  0  0  0  0  0  0  0
   15.4463  -14.0403    0.0000 C   0  0  0  0  0  0  0  0  0  0  0  0
   12.5516  -14.1190    0.0000 O   0  0  0  0  0  0  0  0  0  0  0  0
   11.8386  -13.7040    0.0000 C   0  0  0  0  0  0  0  0  0  0  0  0
   11.1213  -14.1190    0.0000 C   0  0  0  0  0  0  0  0  0  0  0  0
   10.4083  -13.7040    0.0000 C   0  0  0  0  0  0  0  0  0  0  0  0
   10.4083  -12.8823    0.0000 C   0  0  0  0  0  0  0  0  0  0  0  0
    9.6952  -12.4672    0.0000 N   0  0  0  0  0  0  0  0  0  0  0  0
    8.9821  -12.8823    0.0000 C   0  0  0  0  0  0  0  0  0  0  0  0
    8.9821  -13.7040    0.0000 N   0  0  0  0  0  0  0  0  0  0  0  0
    8.2650  -14.1190    0.0000 C   0  0  0  0  0  0  0  0  0  0  0  0
    7.5519  -13.7040    0.0000 C   0  0  0  0  0  0  0  0  0  0  0  0
    7.5519  -12.8823    0.0000 C   0  0  0  0  0  0  0  0  0  0  0  0
    8.2650  -12.4672    0.0000 N   0  0  0  0  0  0  0  0  0  0  0  0
    6.8389  -12.4672    0.0000 C   0  0  0  0  0  0  0  0  0  0  0  0
    6.0874  -12.8035    0.0000 N   0  0  0  0  0  0  0  0  0  0  0  0
    5.5324  -12.1895    0.0000 C   0  0  0  0  0  0  0  0  0  0  0  0
    5.9432  -11.4764    0.0000 C   0  0  0  0  0  0  0  0  0  0  0  0
    6.7543  -11.6481    0.0000 S   0  0  0  0  0  0  0  0  0  0  0  0
   11.1213  -12.4672    0.0000 C   0  0  0  0  0  0  0  0  0  0  0  0
   11.8386  -12.8823    0.0000 C   0  0  0  0  0  0  0  0  0  0  0  0
  1  2  1  0  0  0  0 
  2  3  1  0  0  0  0 
  3  4  1  0  0  0  0 
  4  5  2  0  0  0  0 
  5  6  1  0  0  0  0 
  6  7  2  0  0  0  0 
  3  7  1  0  0  0  0 
  1  8  1  0  0  0  0 
  8  9  1  0  0  0  0 
  9 10  1  0  0  0  0 
 10 11  2  0  0  0  0 
 11 12  1  0  0  0  0 
 12 13  1  0  0  0  0 
 13 14  1  0  0  0  0 
 14 15  2  0  0  0  0 
 15 16  1  0  0  0  0 
 16 17  2  0  0  0  0 
 17 18  1  0  0  0  0 
 18 19  2  0  0  0  0 
 14 19  1  0  0  0  0 
 18 20  1  0  0  0  0 
 20 21  2  0  0  0  0 
 21 22  1  0  0  0  0 
 22 23  2  0  0  0  0 
 23 24  1  0  0  0  0 
 20 24  1  0  0  0  0 
 12 25  2  0  0  0  0 
 25 26  1  0  0  0  0 
  9 26  2  0  0  0  0 
M  END

>  <pIC50>
6.30102999566

$$$$

  CDK    9/16/09,10:7

 22 24  0  0  0  0  0  0  0  0999 V2000
    3.5478  -17.4777    0.0000 F   0  0  0  0  0  0  0  0  0  0  0  0
    3.1510  -18.2011    0.0000 C   0  0  0  0  0  0  0  0  0  0  0  0
    3.8744  -18.5979    0.0000 F   0  0  0  0  0  0  0  0  0  0  0  0
    2.7562  -18.9208    0.0000 F   0  0  0  0  0  0  0  0  0  0  0  0
    2.4277  -17.8043    0.0000 C   0  0  0  0  0  0  0  0  0  0  0  0
    1.7252  -18.2314    0.0000 C   0  0  0  0  0  0  0  0  0  0  0  0
    1.0018  -17.8345    0.0000 C   0  0  0  0  0  0  0  0  0  0  0  0
    0.9846  -17.0126    0.0000 C   0  0  0  0  0  0  0  0  0  0  0  0
    0.2612  -16.6158    0.0000 N   0  0  0  0  0  0  0  0  0  0  0  0
   -0.4412  -17.0429    0.0000 C   0  0  0  0  0  0  0  0  0  0  0  0
   -0.4240  -17.8649    0.0000 N   0  0  0  0  0  0  0  0  0  0  0  0
   -1.1284  -18.2955    0.0000 C   0  0  0  0  0  0  0  0  0  0  0  0
   -1.8518  -17.8987    0.0000 C   0  0  0  0  0  0  0  0  0  0  0  0
   -1.8671  -17.0732    0.0000 C   0  0  0  0  0  0  0  0  0  0  0  0
   -1.1646  -16.6461    0.0000 N   0  0  0  0  0  0  0  0  0  0  0  0
   -2.5904  -16.6764    0.0000 C   0  0  0  0  0  0  0  0  0  0  0  0
   -3.3338  -17.0285    0.0000 N   0  0  0  0  0  0  0  0  0  0  0  0
   -3.9009  -16.4304    0.0000 C   0  0  0  0  0  0  0  0  0  0  0  0
   -3.5040  -15.7070    0.0000 C   0  0  0  0  0  0  0  0  0  0  0  0
   -2.6949  -15.8638    0.0000 S   0  0  0  0  0  0  0  0  0  0  0  0
    1.6870  -16.5856    0.0000 C   0  0  0  0  0  0  0  0  0  0  0  0
    2.4104  -16.9824    0.0000 C   0  0  0  0  0  0  0  0  0  0  0  0
  1  2  1  0  0  0  0 
  2  3  1  0  0  0  0 
  2  4  1  0  0  0  0 
  2  5  1  0  0  0  0 
  5  6  1  0  0  0  0 
  6  7  2  0  0  0  0 
  7  8  1  0  0  0  0 
  8  9  1  0  0  0  0 
  9 10  1  0  0  0  0 
 10 11  2  0  0  0  0 
 11 12  1  0  0  0  0 
 12 13  2  0  0  0  0 
 13 14  1  0  0  0  0 
 14 15  2  0  0  0  0 
 10 15  1  0  0  0  0 
 14 16  1  0  0  0  0 
 16 17  2  0  0  0  0 
 17 18  1  0  0  0  0 
 18 19  2  0  0  0  0 
 19 20  1  0  0  0  0 
 16 20  1  0  0  0  0 
  8 21  2  0  0  0  0 
 21 22  1  0  0  0  0 
  5 22  2  0  0  0  0 
M  END

>  <pIC50>
6.30102999566

$$$$

  CDK    9/16/09,10:7

 25 28  0  0  0  0  0  0  0  0999 V2000
   10.7081  -16.4407    0.0000 N   0  0  0  0  0  0  0  0  0  0  0  0
   11.4295  -16.8410    0.0000 C   0  0  0  0  0  0  0  0  0  0  0  0
   12.1375  -16.4151    0.0000 C   0  0  0  0  0  0  0  0  0  0  0  0
   12.8589  -16.8154    0.0000 C   0  0  0  0  0  0  0  0  0  0  0  0
   12.8722  -17.6415    0.0000 C   0  0  0  0  0  0  0  0  0  0  0  0
   12.1662  -18.0637    0.0000 C   0  0  0  0  0  0  0  0  0  0  0  0
   12.1796  -18.8898    0.0000 O   0  0  0  0  0  0  0  0  0  0  0  0
   12.9010  -19.2901    0.0000 C   0  0  0  0  0  0  0  0  0  0  0  0
   13.6090  -18.8643    0.0000 C   0  0  0  0  0  0  0  0  0  0  0  0
   14.3304  -19.2645    0.0000 C   0  0  0  0  0  0  0  0  0  0  0  0
   14.3438  -20.0906    0.0000 C   0  0  0  0  0  0  0  0  0  0  0  0
   13.6357  -20.5165    0.0000 N   0  0  0  0  0  0  0  0  0  0  0  0
   12.9143  -20.1162    0.0000 C   0  0  0  0  0  0  0  0  0  0  0  0
   11.4448  -17.6634    0.0000 C   0  0  0  0  0  0  0  0  0  0  0  0
   10.0021  -16.8628    0.0000 C   0  0  0  0  0  0  0  0  0  0  0  0
   10.0154  -17.6889    0.0000 N   0  0  0  0  0  0  0  0  0  0  0  0
    9.3074  -18.1148    0.0000 C   0  0  0  0  0  0  0  0  0  0  0  0
    8.5860  -17.7145    0.0000 C   0  0  0  0  0  0  0  0  0  0  0  0
    8.5727  -16.8884    0.0000 C   0  0  0  0  0  0  0  0  0  0  0  0
    9.2807  -16.4626    0.0000 N   0  0  0  0  0  0  0  0  0  0  0  0
    7.8513  -16.4881    0.0000 C   0  0  0  0  0  0  0  0  0  0  0  0
    7.1025  -16.8384    0.0000 N   0  0  0  0  0  0  0  0  0  0  0  0
    6.5412  -16.2329    0.0000 C   0  0  0  0  0  0  0  0  0  0  0  0
    6.9414  -15.5115    0.0000 C   0  0  0  0  0  0  0  0  0  0  0  0
    7.7503  -15.6711    0.0000 S   0  0  0  0  0  0  0  0  0  0  0  0
  1  2  1  0  0  0  0 
  2  3  2  0  0  0  0 
  3  4  1  0  0  0  0 
  4  5  2  0  0  0  0 
  5  6  1  0  0  0  0 
  6  7  1  0  0  0  0 
  7  8  1  0  0  0  0 
  8  9  1  0  0  0  0 
  9 10  2  0  0  0  0 
 10 11  1  0  0  0  0 
 11 12  2  0  0  0  0 
 12 13  1  0  0  0  0 
  8 13  2  0  0  0  0 
  6 14  2  0  0  0  0 
  2 14  1  0  0  0  0 
  1 15  1  0  0  0  0 
 15 16  1  0  0  0  0 
 16 17  2  0  0  0  0 
 17 18  1  0  0  0  0 
 18 19  2  0  0  0  0 
 19 20  1  0  0  0  0 
 15 20  2  0  0  0  0 
 19 21  1  0  0  0  0 
 21 22  2  0  0  0  0 
 22 23  1  0  0  0  0 
 23 24  2  0  0  0  0 
 24 25  1  0  0  0  0 
 21 25  1  0  0  0  0 
M  END

>  <pIC50>
6.30102999566

$$$$

  CDK    9/16/09,10:7

 27 30  0  0  0  0  0  0  0  0999 V2000
    5.5706  -21.4380    0.0000 N   0  0  0  0  0  0  0  0  0  0  0  0
    5.5706  -22.2630    0.0000 C   0  0  0  0  0  0  0  0  0  0  0  0
    6.2829  -22.6775    0.0000 C   0  0  0  0  0  0  0  0  0  0  0  0
    6.2829  -23.5025    0.0000 C   0  0  0  0  0  0  0  0  0  0  0  0
    5.5706  -23.9129    0.0000 C   0  0  0  0  0  0  0  0  0  0  0  0
    4.8543  -23.5025    0.0000 C   0  0  0  0  0  0  0  0  0  0  0  0
    4.8543  -22.6775    0.0000 C   0  0  0  0  0  0  0  0  0  0  0  0
    4.1378  -22.2630    0.0000 C   0  0  0  0  0  0  0  0  0  0  0  0
    3.4297  -22.6775    0.0000 O   0  0  0  0  0  0  0  0  0  0  0  0
    2.7134  -22.2630    0.0000 C   0  0  0  0  0  0  0  0  0  0  0  0
    1.9970  -22.6775    0.0000 C   0  0  0  0  0  0  0  0  0  0  0  0
    1.2848  -22.2630    0.0000 C   0  0  0  0  0  0  0  0  0  0  0  0
    1.2848  -21.4380    0.0000 C   0  0  0  0  0  0  0  0  0  0  0  0
    0.5684  -21.0276    0.0000 N   0  0  0  0  0  0  0  0  0  0  0  0
   -0.1479  -21.4380    0.0000 C   0  0  0  0  0  0  0  0  0  0  0  0
   -0.1479  -22.2630    0.0000 N   0  0  0  0  0  0  0  0  0  0  0  0
   -0.8602  -22.6775    0.0000 C   0  0  0  0  0  0  0  0  0  0  0  0
   -1.5766  -22.2630    0.0000 C   0  0  0  0  0  0  0  0  0  0  0  0
   -1.5766  -21.4380    0.0000 C   0  0  0  0  0  0  0  0  0  0  0  0
   -0.8602  -21.0276    0.0000 N   0  0  0  0  0  0  0  0  0  0  0  0
   -2.2888  -21.0276    0.0000 C   0  0  0  0  0  0  0  0  0  0  0  0
   -3.0394  -21.3634    0.0000 N   0  0  0  0  0  0  0  0  0  0  0  0
   -3.5939  -20.7542    0.0000 C   0  0  0  0  0  0  0  0  0  0  0  0
   -3.1835  -20.0379    0.0000 C   0  0  0  0  0  0  0  0  0  0  0  0
   -2.3774  -20.2094    0.0000 S   0  0  0  0  0  0  0  0  0  0  0  0
    1.9970  -21.0276    0.0000 C   0  0  0  0  0  0  0  0  0  0  0  0
    2.7134  -21.4380    0.0000 C   0  0  0  0  0  0  0  0  0  0  0  0
  1  2  1  0  0  0  0 
  2  3  1  0  0  0  0 
  3  4  2  0  0  0  0 
  4  5  1  0  0  0  0 
  5  6  2  0  0  0  0 
  6  7  1  0  0  0  0 
  2  7  2  0  0  0  0 
  7  8  1  0  0  0  0 
  8  9  1  0  0  0  0 
  9 10  1  0  0  0  0 
 10 11  1  0  0  0  0 
 11 12  2  0  0  0  0 
 12 13  1  0  0  0  0 
 13 14  1  0  0  0  0 
 14 15  1  0  0  0  0 
 15 16  2  0  0  0  0 
 16 17  1  0  0  0  0 
 17 18  2  0  0  0  0 
 18 19  1  0  0  0  0 
 19 20  2  0  0  0  0 
 15 20  1  0  0  0  0 
 19 21  1  0  0  0  0 
 21 22  2  0  0  0  0 
 22 23  1  0  0  0  0 
 23 24  2  0  0  0  0 
 24 25  1  0  0  0  0 
 21 25  1  0  0  0  0 
 13 26  2  0  0  0  0 
 26 27  1  0  0  0  0 
 10 27  2  0  0  0  0 
M  END

>  <pIC50>
6.30102999566

$$$$

  CDK    9/16/09,10:7

 28 31  0  0  0  0  0  0  0  0999 V2000
    8.4695  -18.5809    0.0000 C   0  0  0  0  0  0  0  0  0  0  0  0
    8.8250  -19.3291    0.0000 C   0  0  0  0  0  0  0  0  0  0  0  0
    9.6328  -19.4785    0.0000 C   0  0  0  0  0  0  0  0  0  0  0  0
    9.7370  -20.2944    0.0000 C   0  0  0  0  0  0  0  0  0  0  0  0
   10.4613  -20.6897    0.0000 N   0  0  0  0  0  0  0  0  0  0  0  0
   10.4803  -21.5115    0.0000 C   0  0  0  0  0  0  0  0  0  0  0  0
   11.2046  -21.9068    0.0000 N   0  0  0  0  0  0  0  0  0  0  0  0
   11.2217  -22.7322    0.0000 N   0  0  0  0  0  0  0  0  0  0  0  0
   10.5202  -23.1609    0.0000 C   0  0  0  0  0  0  0  0  0  0  0  0
   10.5392  -23.9828    0.0000 O   0  0  0  0  0  0  0  0  0  0  0  0
    9.7959  -22.7657    0.0000 C   0  0  0  0  0  0  0  0  0  0  0  0
    9.0944  -23.1943    0.0000 C   0  0  0  0  0  0  0  0  0  0  0  0
    8.3703  -22.7991    0.0000 C   0  0  0  0  0  0  0  0  0  0  0  0
    8.3512  -21.9772    0.0000 C   0  0  0  0  0  0  0  0  0  0  0  0
    9.0527  -21.5486    0.0000 C   0  0  0  0  0  0  0  0  0  0  0  0
    9.7768  -21.9438    0.0000 C   0  0  0  0  0  0  0  0  0  0  0  0
   11.9459  -23.1275    0.0000 C   0  0  0  0  0  0  0  0  0  0  0  0
   12.6493  -22.6952    0.0000 C   0  0  0  0  0  0  0  0  0  0  0  0
   13.3736  -23.0904    0.0000 C   0  0  0  0  0  0  0  0  0  0  0  0
   13.3906  -23.9159    0.0000 C   0  0  0  0  0  0  0  0  0  0  0  0
   12.6891  -24.3446    0.0000 C   0  0  0  0  0  0  0  0  0  0  0  0
   11.9650  -23.9493    0.0000 C   0  0  0  0  0  0  0  0  0  0  0  0
   14.1149  -24.3111    0.0000 C   0  0  0  0  0  0  0  0  0  0  0  0
   14.8391  -24.7063    0.0000 F   0  0  0  0  0  0  0  0  0  0  0  0
   13.7217  -25.0317    0.0000 F   0  0  0  0  0  0  0  0  0  0  0  0
   14.5101  -23.5870    0.0000 F   0  0  0  0  0  0  0  0  0  0  0  0
    8.9945  -20.6483    0.0000 N   0  0  0  0  0  0  0  0  0  0  0  0
    8.4318  -20.0497    0.0000 N   0  0  0  0  0  0  0  0  0  0  0  0
  1  2  1  0  0  0  0 
  2  3  1  0  0  0  0 
  3  4  2  0  0  0  0 
  4  5  1  0  0  0  0 
  5  6  1  0  0  0  0 
  6  7  2  0  0  0  0 
  7  8  1  0  0  0  0 
  8  9  1  0  0  0  0 
  9 10  2  0  0  0  0 
  9 11  1  0  0  0  0 
 11 12  1  0  0  0  0 
 12 13  2  0  0  0  0 
 13 14  1  0  0  0  0 
 14 15  2  0  0  0  0 
 15 16  1  0  0  0  0 
  6 16  1  0  0  0  0 
 11 16  2  0  0  0  0 
  8 17  1  0  0  0  0 
 17 18  2  0  0  0  0 
 18 19  1  0  0  0  0 
 19 20  2  0  0  0  0 
 20 21  1  0  0  0  0 
 21 22  2  0  0  0  0 
 17 22  1  0  0  0  0 
 20 23  1  0  0  0  0 
 23 24  1  0  0  0  0 
 23 25  1  0  0  0  0 
 23 26  1  0  0  0  0 
  4 27  1  0  0  0  0 
 27 28  1  0  0  0  0 
  2 28  2  0  0  0  0 
M  END

>  <pIC50>
6.27984069659

$$$$

  CDK    9/16/09,10:7

 37 41  0  0  0  0  0  0  0  0999 V2000
    3.3650   -1.5550    0.0000 C   0  0  0  0  0  0  0  0  0  0  0  0
    2.7830   -2.1383    0.0000 O   0  0  0  0  0  0  0  0  0  0  0  0
    2.9986   -2.9367    0.0000 C   0  0  0  0  0  0  0  0  0  0  0  0
    3.8013   -3.1486    0.0000 C   0  0  0  0  0  0  0  0  0  0  0  0
    4.0163   -3.9447    0.0000 C   0  0  0  0  0  0  0  0  0  0  0  0
    3.4312   -4.5281    0.0000 C   0  0  0  0  0  0  0  0  0  0  0  0
    2.6353   -4.3173    0.0000 C   0  0  0  0  0  0  0  0  0  0  0  0
    2.4197   -3.5194    0.0000 C   0  0  0  0  0  0  0  0  0  0  0  0
    2.1894   -5.0095    0.0000 C   0  0  0  0  0  0  0  0  0  0  0  0
    1.3645   -5.0543    0.0000 C   0  0  0  0  0  0  0  0  0  0  0  0
    0.9882   -5.7928    0.0000 C   0  0  0  0  0  0  0  0  0  0  0  0
    1.3639   -6.5240    0.0000 C   0  0  0  0  0  0  0  0  0  0  0  0
    2.1821   -6.6518    0.0000 O   0  0  0  0  0  0  0  0  0  0  0  0
    0.7829   -7.1114    0.0000 N   0  0  0  0  0  0  0  0  0  0  0  0
    0.0455   -6.7391    0.0000 C   0  0  0  0  0  0  0  0  0  0  0  0
   -0.7243   -7.0346    0.0000 C   0  0  0  0  0  0  0  0  0  0  0  0
   -1.3652   -6.5160    0.0000 C   0  0  0  0  0  0  0  0  0  0  0  0
   -1.2374   -5.6977    0.0000 C   0  0  0  0  0  0  0  0  0  0  0  0
   -0.4676   -5.4022    0.0000 C   0  0  0  0  0  0  0  0  0  0  0  0
    0.1733   -5.9209    0.0000 C   0  0  0  0  0  0  0  0  0  0  0  0
   -1.8823   -5.1800    0.0000 S   0  0  0  0  0  0  0  0  0  0  0  0
   -2.4000   -5.8250    0.0000 O   0  0  0  0  0  0  0  0  0  0  0  0
   -1.3636   -4.5392    0.0000 O   0  0  0  0  0  0  0  0  0  0  0  0
   -2.5222   -4.6654    0.0000 N   0  0  0  0  0  0  0  0  0  0  0  0
    2.7067   -5.6493    0.0000 C   0  0  0  0  0  0  0  0  0  0  0  0
    3.4765   -5.3537    0.0000 N   0  0  0  0  0  0  0  0  0  0  0  0
    4.1735   -5.8021    0.0000 C   0  0  0  0  0  0  0  0  0  0  0  0
    4.9047   -5.4264    0.0000 C   0  0  0  0  0  0  0  0  0  0  0  0
    5.6228   -5.8356    0.0000 C   0  0  0  0  0  0  0  0  0  0  0  0
    6.3362   -5.4206    0.0000 C   0  0  0  0  0  0  0  0  0  0  0  0
    6.3356   -4.5953    0.0000 O   0  0  0  0  0  0  0  0  0  0  0  0
    7.0503   -5.8311    0.0000 N   0  0  0  0  0  0  0  0  0  0  0  0
    7.7648   -5.4200    0.0000 C   0  0  0  0  0  0  0  0  0  0  0  0
    8.4830   -5.8293    0.0000 C   0  0  0  0  0  0  0  0  0  0  0  0
    8.4836   -6.6547    0.0000 N   0  0  0  0  0  0  0  0  0  0  0  0
    7.7700   -7.0697    0.0000 C   0  0  0  0  0  0  0  0  0  0  0  0
    7.0560   -6.6593    0.0000 C   0  0  0  0  0  0  0  0  0  0  0  0
  1  2  1  0  0  0  0 
  2  3  1  0  0  0  0 
  3  4  1  0  0  0  0 
  4  5  2  0  0  0  0 
  5  6  1  0  0  0  0 
  6  7  2  0  0  0  0 
  7  8  1  0  0  0  0 
  3  8  2  0  0  0  0 
  7  9  1  0  0  0  0 
  9 10  1  0  0  0  0 
 10 11  2  0  0  0  0 
 11 12  1  0  0  0  0 
 12 13  2  0  0  0  0 
 12 14  1  0  0  0  0 
 14 15  1  0  0  0  0 
 15 16  1  0  0  0  0 
 16 17  2  0  0  0  0 
 17 18  1  0  0  0  0 
 18 19  2  0  0  0  0 
 19 20  1  0  0  0  0 
 11 20  1  0  0  0  0 
 15 20  2  0  0  0  0 
 18 21  1  0  0  0  0 
 21 22  2  0  0  0  0 
 21 23  2  0  0  0  0 
 21 24  1  0  0  0  0 
  9 25  2  0  0  0  0 
 25 26  1  0  0  0  0 
  6 26  1  0  0  0  0 
 26 27  1  0  0  0  0 
 27 28  1  0  0  0  0 
 28 29  1  0  0  0  0 
 29 30  1  0  0  0  0 
 30 31  2  0  0  0  0 
 30 32  1  0  0  0  0 
 32 33  1  0  0  0  0 
 33 34  1  0  0  0  0 
 34 35  1  0  0  0  0 
 35 36  1  0  0  0  0 
 36 37  1  0  0  0  0 
 32 37  1  0  0  0  0 
M  END

>  <pIC50>
6.21041928784

$$$$

  CDK    9/16/09,10:7

 31 34  0  0  0  0  0  0  0  0999 V2000
   15.9059   -8.2566    0.0000 C   0  0  0  0  0  0  0  0  0  0  0  0
   15.4231   -7.5896    0.0000 O   0  0  0  0  0  0  0  0  0  0  0  0
   15.7594   -6.8339    0.0000 C   0  0  0  0  0  0  0  0  0  0  0  0
   16.5785   -6.7495    0.0000 C   0  0  0  0  0  0  0  0  0  0  0  0
   16.9148   -5.9938    0.0000 C   0  0  0  0  0  0  0  0  0  0  0  0
   16.4278   -5.3268    0.0000 C   0  0  0  0  0  0  0  0  0  0  0  0
   15.6086   -5.4155    0.0000 C   0  0  0  0  0  0  0  0  0  0  0  0
   15.2724   -6.1669    0.0000 C   0  0  0  0  0  0  0  0  0  0  0  0
   15.2724   -4.6640    0.0000 C   0  0  0  0  0  0  0  0  0  0  0  0
   14.4653   -4.4881    0.0000 C   0  0  0  0  0  0  0  0  0  0  0  0
   14.2134   -3.7065    0.0000 C   0  0  0  0  0  0  0  0  0  0  0  0
   14.6962   -3.0395    0.0000 C   0  0  0  0  0  0  0  0  0  0  0  0
   15.5222   -3.0395    0.0000 O   0  0  0  0  0  0  0  0  0  0  0  0
   14.2134   -2.3725    0.0000 N   0  0  0  0  0  0  0  0  0  0  0  0
   13.4275   -2.6286    0.0000 C   0  0  0  0  0  0  0  0  0  0  0  0
   12.7145   -2.2135    0.0000 C   0  0  0  0  0  0  0  0  0  0  0  0
   12.0014   -2.6286    0.0000 C   0  0  0  0  0  0  0  0  0  0  0  0
   12.0014   -3.4504    0.0000 C   0  0  0  0  0  0  0  0  0  0  0  0
   12.7145   -3.8654    0.0000 C   0  0  0  0  0  0  0  0  0  0  0  0
   13.4275   -3.4504    0.0000 C   0  0  0  0  0  0  0  0  0  0  0  0
   11.2841   -3.8654    0.0000 S   0  0  0  0  0  0  0  0  0  0  0  0
   10.8732   -3.1482    0.0000 O   0  0  0  0  0  0  0  0  0  0  0  0
   11.6991   -4.5785    0.0000 O   0  0  0  0  0  0  0  0  0  0  0  0
   10.5710   -4.2763    0.0000 N   0  0  0  0  0  0  0  0  0  0  0  0
    9.8579   -3.8654    0.0000 C   0  0  0  0  0  0  0  0  0  0  0  0
    9.1449   -4.2763    0.0000 C   0  0  0  0  0  0  0  0  0  0  0  0
    9.1449   -5.0981    0.0000 O   0  0  0  0  0  0  0  0  0  0  0  0
    8.4276   -3.8654    0.0000 O   0  0  0  0  0  0  0  0  0  0  0  0
   15.8864   -4.1088    0.0000 C   0  0  0  0  0  0  0  0  0  0  0  0
   16.5995   -4.5239    0.0000 N   0  0  0  0  0  0  0  0  0  0  0  0
   17.3552   -4.1876    0.0000 C   0  0  0  0  0  0  0  0  0  0  0  0
  1  2  1  0  0  0  0 
  2  3  1  0  0  0  0 
  3  4  1  0  0  0  0 
  4  5  2  0  0  0  0 
  5  6  1  0  0  0  0 
  6  7  2  0  0  0  0 
  7  8  1  0  0  0  0 
  3  8  2  0  0  0  0 
  7  9  1  0  0  0  0 
  9 10  1  0  0  0  0 
 10 11  2  0  0  0  0 
 11 12  1  0  0  0  0 
 12 13  2  0  0  0  0 
 12 14  1  0  0  0  0 
 14 15  1  0  0  0  0 
 15 16  1  0  0  0  0 
 16 17  2  0  0  0  0 
 17 18  1  0  0  0  0 
 18 19  2  0  0  0  0 
 19 20  1  0  0  0  0 
 11 20  1  0  0  0  0 
 15 20  2  0  0  0  0 
 18 21  1  0  0  0  0 
 21 22  2  0  0  0  0 
 21 23  2  0  0  0  0 
 21 24  1  0  0  0  0 
 24 25  1  0  0  0  0 
 25 26  1  0  0  0  0 
 26 27  2  0  0  0  0 
 26 28  1  0  0  0  0 
  9 29  2  0  0  0  0 
 29 30  1  0  0  0  0 
  6 30  1  0  0  0  0 
 30 31  1  0  0  0  0 
M  END

>  <pIC50>
6.18177410639

$$$$

  CDK    9/16/09,10:7

 23 25  0  0  0  0  0  0  0  0999 V2000
    1.5096   -9.4978    0.0000 C   0  0  0  0  0  0  0  0  0  0  0  0
    0.7931   -9.0886    0.0000 C   0  0  0  0  0  0  0  0  0  0  0  0
    0.7900   -8.2663    0.0000 C   0  0  0  0  0  0  0  0  0  0  0  0
    0.0813   -9.5070    0.0000 N   0  0  0  0  0  0  0  0  0  0  0  0
    0.0844  -10.3293    0.0000 N   0  0  0  0  0  0  0  0  0  0  0  0
   -0.6254  -10.7442    0.0000 C   0  0  0  0  0  0  0  0  0  0  0  0
   -0.6224  -11.5663    0.0000 N   0  0  0  0  0  0  0  0  0  0  0  0
    0.0941  -11.9756    0.0000 C   0  0  0  0  0  0  0  0  0  0  0  0
    0.8471  -11.6384    0.0000 C   0  0  0  0  0  0  0  0  0  0  0  0
    1.3982  -12.2479    0.0000 C   0  0  0  0  0  0  0  0  0  0  0  0
    2.2181  -12.1560    0.0000 C   0  0  0  0  0  0  0  0  0  0  0  0
    0.9889  -12.9643    0.0000 N   0  0  0  0  0  0  0  0  0  0  0  0
    0.1860  -12.7955    0.0000 N   0  0  0  0  0  0  0  0  0  0  0  0
   -1.3419  -10.3349    0.0000 C   0  0  0  0  0  0  0  0  0  0  0  0
   -2.0517  -10.7498    0.0000 C   0  0  0  0  0  0  0  0  0  0  0  0
   -2.7682  -10.3405    0.0000 C   0  0  0  0  0  0  0  0  0  0  0  0
   -2.7713   -9.5184    0.0000 C   0  0  0  0  0  0  0  0  0  0  0  0
   -3.4877   -9.1091    0.0000 C   0  0  0  0  0  0  0  0  0  0  0  0
   -4.1975   -9.5240    0.0000 O   0  0  0  0  0  0  0  0  0  0  0  0
   -2.0614   -9.1034    0.0000 C   0  0  0  0  0  0  0  0  0  0  0  0
   -1.3450   -9.5127    0.0000 C   0  0  0  0  0  0  0  0  0  0  0  0
   -0.6352   -9.0978    0.0000 C   0  0  0  0  0  0  0  0  0  0  0  0
   -0.6362   -8.2720    0.0000 O   0  0  0  0  0  0  0  0  0  0  0  0
  1  2  1  0  0  0  0 
  2  3  1  0  0  0  0 
  2  4  1  0  0  0  0 
  4  5  1  0  0  0  0 
  5  6  2  0  0  0  0 
  6  7  1  0  0  0  0 
  7  8  1  0  0  0  0 
  8  9  2  0  0  0  0 
  9 10  1  0  0  0  0 
 10 11  1  0  0  0  0 
 10 12  2  0  0  0  0 
 12 13  1  0  0  0  0 
  8 13  1  0  0  0  0 
  6 14  1  0  0  0  0 
 14 15  1  0  0  0  0 
 15 16  2  0  0  0  0 
 16 17  1  0  0  0  0 
 17 18  1  0  0  0  0 
 18 19  1  0  0  0  0 
 17 20  2  0  0  0  0 
 20 21  1  0  0  0  0 
 14 21  2  0  0  0  0 
 21 22  1  0  0  0  0 
  4 22  1  0  0  0  0 
 22 23  2  0  0  0  0 
M  END

>  <pIC50>
6.17652577083

$$$$

  CDK    9/16/09,10:7

 35 38  0  0  0  0  0  0  0  0999 V2000
   16.9742  -11.6658    0.0000 C   0  0  0  0  0  0  0  0  0  0  0  0
   16.2558  -12.0790    0.0000 C   0  0  0  0  0  0  0  0  0  0  0  0
   15.5422  -11.6660    0.0000 O   0  0  0  0  0  0  0  0  0  0  0  0
   14.8293  -12.0813    0.0000 C   0  0  0  0  0  0  0  0  0  0  0  0
   14.8284  -12.9058    0.0000 O   0  0  0  0  0  0  0  0  0  0  0  0
   14.1118  -11.6700    0.0000 C   0  0  0  0  0  0  0  0  0  0  0  0
   13.3972  -12.0816    0.0000 C   0  0  0  0  0  0  0  0  0  0  0  0
   12.6835  -11.6686    0.0000 C   0  0  0  0  0  0  0  0  0  0  0  0
   11.9690  -12.0801    0.0000 C   0  0  0  0  0  0  0  0  0  0  0  0
   11.2532  -11.6726    0.0000 N   0  0  0  0  0  0  0  0  0  0  0  0
   10.4979  -12.0097    0.0000 C   0  0  0  0  0  0  0  0  0  0  0  0
    9.9469  -11.3939    0.0000 C   0  0  0  0  0  0  0  0  0  0  0  0
    9.1238  -11.4803    0.0000 C   0  0  0  0  0  0  0  0  0  0  0  0
    8.7872  -12.2347    0.0000 C   0  0  0  0  0  0  0  0  0  0  0  0
    9.2024  -12.9476    0.0000 C   0  0  0  0  0  0  0  0  0  0  0  0
   10.0238  -13.0361    0.0000 O   0  0  0  0  0  0  0  0  0  0  0  0
    8.6486  -13.5634    0.0000 N   0  0  0  0  0  0  0  0  0  0  0  0
    7.8943  -13.2267    0.0000 C   0  0  0  0  0  0  0  0  0  0  0  0
    7.1390  -13.5636    0.0000 C   0  0  0  0  0  0  0  0  0  0  0  0
    6.4723  -13.0792    0.0000 C   0  0  0  0  0  0  0  0  0  0  0  0
    6.5571  -12.2594    0.0000 C   0  0  0  0  0  0  0  0  0  0  0  0
    7.3123  -11.9225    0.0000 C   0  0  0  0  0  0  0  0  0  0  0  0
    7.9790  -12.4069    0.0000 C   0  0  0  0  0  0  0  0  0  0  0  0
    5.8904  -11.7751    0.0000 S   0  0  0  0  0  0  0  0  0  0  0  0
    6.3748  -11.1084    0.0000 O   0  0  0  0  0  0  0  0  0  0  0  0
    5.4060  -12.4418    0.0000 O   0  0  0  0  0  0  0  0  0  0  0  0
    5.2237  -11.2906    0.0000 N   0  0  0  0  0  0  0  0  0  0  0  0
   10.3582  -10.6765    0.0000 C   0  0  0  0  0  0  0  0  0  0  0  0
   10.1012   -9.8929    0.0000 C   0  0  0  0  0  0  0  0  0  0  0  0
   10.6529   -9.2826    0.0000 C   0  0  0  0  0  0  0  0  0  0  0  0
   10.3981   -8.4935    0.0000 O   0  0  0  0  0  0  0  0  0  0  0  0
   10.9481   -7.8794    0.0000 C   0  0  0  0  0  0  0  0  0  0  0  0
   11.4637   -9.4503    0.0000 C   0  0  0  0  0  0  0  0  0  0  0  0
   11.7168  -10.2355    0.0000 C   0  0  0  0  0  0  0  0  0  0  0  0
   11.1668  -10.8496    0.0000 C   0  0  0  0  0  0  0  0  0  0  0  0
  1  2  1  0  0  0  0 
  2  3  1  0  0  0  0 
  3  4  1  0  0  0  0 
  4  5  2  0  0  0  0 
  4  6  1  0  0  0  0 
  6  7  1  0  0  0  0 
  7  8  1  0  0  0  0 
  8  9  1  0  0  0  0 
  9 10  1  0  0  0  0 
 10 11  1  0  0  0  0 
 11 12  2  0  0  0  0 
 12 13  1  0  0  0  0 
 13 14  2  0  0  0  0 
 14 15  1  0  0  0  0 
 15 16  2  0  0  0  0 
 15 17  1  0  0  0  0 
 17 18  1  0  0  0  0 
 18 19  1  0  0  0  0 
 19 20  2  0  0  0  0 
 20 21  1  0  0  0  0 
 21 22  2  0  0  0  0 
 22 23  1  0  0  0  0 
 14 23  1  0  0  0  0 
 18 23  2  0  0  0  0 
 21 24  1  0  0  0  0 
 24 25  2  0  0  0  0 
 24 26  2  0  0  0  0 
 24 27  1  0  0  0  0 
 12 28  1  0  0  0  0 
 28 29  1  0  0  0  0 
 29 30  2  0  0  0  0 
 30 31  1  0  0  0  0 
 31 32  1  0  0  0  0 
 30 33  1  0  0  0  0 
 33 34  2  0  0  0  0 
 34 35  1  0  0  0  0 
 10 35  1  0  0  0  0 
 28 35  2  0  0  0  0 
M  END

>  <pIC50>
6.16877030613

$$$$

  CDK    9/16/09,10:7

 36 39  0  0  0  0  0  0  0  0999 V2000
    2.9723  -19.3660    0.0000 C   0  0  0  0  0  0  0  0  0  0  0  0
    2.9723  -18.5410    0.0000 O   0  0  0  0  0  0  0  0  0  0  0  0
    3.6845  -18.1265    0.0000 C   0  0  0  0  0  0  0  0  0  0  0  0
    3.6845  -17.3015    0.0000 C   0  0  0  0  0  0  0  0  0  0  0  0
    4.3968  -16.8911    0.0000 C   0  0  0  0  0  0  0  0  0  0  0  0
    4.3968  -16.0661    0.0000 N   0  0  0  0  0  0  0  0  0  0  0  0
    3.6845  -15.6515    0.0000 C   0  0  0  0  0  0  0  0  0  0  0  0
    2.9723  -16.0661    0.0000 N   0  0  0  0  0  0  0  0  0  0  0  0
    2.2559  -15.6515    0.0000 C   0  0  0  0  0  0  0  0  0  0  0  0
    1.5436  -16.0661    0.0000 N   0  0  0  0  0  0  0  0  0  0  0  0
    0.8273  -15.6515    0.0000 C   0  0  0  0  0  0  0  0  0  0  0  0
    0.1150  -16.0661    0.0000 C   0  0  0  0  0  0  0  0  0  0  0  0
    0.1150  -16.8911    0.0000 C   0  0  0  0  0  0  0  0  0  0  0  0
   -0.6013  -17.3015    0.0000 C   0  0  0  0  0  0  0  0  0  0  0  0
   -1.3177  -16.8911    0.0000 C   0  0  0  0  0  0  0  0  0  0  0  0
   -2.0300  -17.3015    0.0000 C   0  0  0  0  0  0  0  0  0  0  0  0
   -2.7421  -16.8911    0.0000 C   0  0  0  0  0  0  0  0  0  0  0  0
   -3.4586  -17.3015    0.0000 C   0  0  0  0  0  0  0  0  0  0  0  0
   -3.4586  -18.1265    0.0000 O   0  0  0  0  0  0  0  0  0  0  0  0
   -4.1708  -16.8911    0.0000 O   0  0  0  0  0  0  0  0  0  0  0  0
   -1.3177  -16.0661    0.0000 C   0  0  0  0  0  0  0  0  0  0  0  0
   -0.6013  -15.6515    0.0000 C   0  0  0  0  0  0  0  0  0  0  0  0
    2.2559  -14.8266    0.0000 N   0  0  0  0  0  0  0  0  0  0  0  0
    1.6426  -14.2721    0.0000 C   0  0  0  0  0  0  0  0  0  0  0  0
    1.9785  -13.5174    0.0000 C   0  0  0  0  0  0  0  0  0  0  0  0
    2.7967  -13.6101    0.0000 N   0  0  0  0  0  0  0  0  0  0  0  0
    2.9723  -14.4162    0.0000 C   0  0  0  0  0  0  0  0  0  0  0  0
    3.6845  -14.8266    0.0000 C   0  0  0  0  0  0  0  0  0  0  0  0
    4.3968  -14.4162    0.0000 C   0  0  0  0  0  0  0  0  0  0  0  0
    4.3968  -13.5912    0.0000 O   0  0  0  0  0  0  0  0  0  0  0  0
    5.1132  -14.8266    0.0000 N   0  0  0  0  0  0  0  0  0  0  0  0
    5.1132  -17.3015    0.0000 C   0  0  0  0  0  0  0  0  0  0  0  0
    5.1132  -18.1265    0.0000 C   0  0  0  0  0  0  0  0  0  0  0  0
    5.8295  -18.5410    0.0000 O   0  0  0  0  0  0  0  0  0  0  0  0
    5.8295  -19.3660    0.0000 C   0  0  0  0  0  0  0  0  0  0  0  0
    4.3968  -18.5410    0.0000 C   0  0  0  0  0  0  0  0  0  0  0  0
  1  2  1  0  0  0  0 
  2  3  1  0  0  0  0 
  3  4  1  0  0  0  0 
  4  5  2  0  0  0  0 
  5  6  1  0  0  0  0 
  6  7  1  0  0  0  0 
  7  8  1  0  0  0  0 
  8  9  2  0  0  0  0 
  9 10  1  0  0  0  0 
 10 11  1  0  0  0  0 
 11 12  1  0  0  0  0 
 12 13  2  0  0  0  0 
 13 14  1  0  0  0  0 
 14 15  2  0  0  0  0 
 15 16  1  0  0  0  0 
 16 17  2  0  0  0  0 
 17 18  1  0  0  0  0 
 18 19  2  0  0  0  0 
 18 20  1  0  0  0  0 
 15 21  1  0  0  0  0 
 21 22  2  0  0  0  0 
 12 22  1  0  0  0  0 
  9 23  1  0  0  0  0 
 23 24  1  0  0  0  0 
 24 25  2  0  0  0  0 
 25 26  1  0  0  0  0 
 26 27  2  0  0  0  0 
 23 27  1  0  0  0  0 
 27 28  1  0  0  0  0 
  7 28  2  0  0  0  0 
 28 29  1  0  0  0  0 
 29 30  2  0  0  0  0 
 29 31  1  0  0  0  0 
  5 32  1  0  0  0  0 
 32 33  2  0  0  0  0 
 33 34  1  0  0  0  0 
 34 35  1  0  0  0  0 
 33 36  1  0  0  0  0 
  3 36  2  0  0  0  0 
M  END

>  <pIC50>
6.16115090926

$$$$

  CDK    9/16/09,10:7

 26 27  0  0  0  0  0  0  0  0999 V2000
    7.7254  -19.2901    0.0000 C   0  0  0  0  0  0  0  0  0  0  0  0
    7.7233  -18.4652    0.0000 N   0  0  0  0  0  0  0  0  0  0  0  0
    7.0064  -18.0498    0.0000 C   0  0  0  0  0  0  0  0  0  0  0  0
    8.4395  -18.0499    0.0000 C   0  0  0  0  0  0  0  0  0  0  0  0
    9.1544  -18.4618    0.0000 C   0  0  0  0  0  0  0  0  0  0  0  0
    9.8706  -18.0465    0.0000 N   0  0  0  0  0  0  0  0  0  0  0  0
    9.8685  -17.2216    0.0000 C   0  0  0  0  0  0  0  0  0  0  0  0
    9.1516  -16.8062    0.0000 N   0  0  0  0  0  0  0  0  0  0  0  0
    9.1494  -15.9813    0.0000 C   0  0  0  0  0  0  0  0  0  0  0  0
    9.8656  -15.5660    0.0000 C   0  0  0  0  0  0  0  0  0  0  0  0
    9.8635  -14.7411    0.0000 C   0  0  0  0  0  0  0  0  0  0  0  0
   10.5797  -14.3258    0.0000 O   0  0  0  0  0  0  0  0  0  0  0  0
    9.1487  -14.3293    0.0000 N   0  0  0  0  0  0  0  0  0  0  0  0
   10.5805  -15.9778    0.0000 C   0  0  0  0  0  0  0  0  0  0  0  0
   11.2967  -15.5626    0.0000 N   0  0  0  0  0  0  0  0  0  0  0  0
   12.0136  -15.9780    0.0000 C   0  0  0  0  0  0  0  0  0  0  0  0
   12.0158  -16.8029    0.0000 C   0  0  0  0  0  0  0  0  0  0  0  0
   12.7306  -17.2147    0.0000 C   0  0  0  0  0  0  0  0  0  0  0  0
   13.4468  -16.7995    0.0000 C   0  0  0  0  0  0  0  0  0  0  0  0
   13.4446  -15.9746    0.0000 C   0  0  0  0  0  0  0  0  0  0  0  0
   12.7298  -15.5627    0.0000 C   0  0  0  0  0  0  0  0  0  0  0  0
   14.1609  -15.5593    0.0000 C   0  0  0  0  0  0  0  0  0  0  0  0
   14.5740  -16.2720    0.0000 F   0  0  0  0  0  0  0  0  0  0  0  0
   13.7457  -14.8431    0.0000 F   0  0  0  0  0  0  0  0  0  0  0  0
   14.8736  -15.1461    0.0000 F   0  0  0  0  0  0  0  0  0  0  0  0
   10.5847  -16.8063    0.0000 N   0  0  0  0  0  0  0  0  0  0  0  0
  1  2  1  0  0  0  0 
  2  3  1  0  0  0  0 
  2  4  1  0  0  0  0 
  4  5  1  0  0  0  0 
  5  6  1  0  0  0  0 
  6  7  1  0  0  0  0 
  7  8  2  0  0  0  0 
  8  9  1  0  0  0  0 
  9 10  2  0  0  0  0 
 10 11  1  0  0  0  0 
 11 12  2  0  0  0  0 
 11 13  1  0  0  0  0 
 10 14  1  0  0  0  0 
 14 15  1  0  0  0  0 
 15 16  1  0  0  0  0 
 16 17  1  0  0  0  0 
 17 18  2  0  0  0  0 
 18 19  1  0  0  0  0 
 19 20  2  0  0  0  0 
 20 21  1  0  0  0  0 
 16 21  2  0  0  0  0 
 20 22  1  0  0  0  0 
 22 23  1  0  0  0  0 
 22 24  1  0  0  0  0 
 22 25  1  0  0  0  0 
 14 26  2  0  0  0  0 
  7 26  1  0  0  0  0 
M  END

>  <pIC50>
6.12493873661

$$$$

  CDK    9/16/09,10:7

 25 27  0  0  0  0  0  0  0  0999 V2000
    0.2717  -18.5418    0.0000 N   0  0  0  0  0  0  0  0  0  0  0  0
    0.2657  -19.3668    0.0000 C   0  0  0  0  0  0  0  0  0  0  0  0
   -0.4537  -19.7761    0.0000 C   0  0  0  0  0  0  0  0  0  0  0  0
   -0.4598  -20.6010    0.0000 C   0  0  0  0  0  0  0  0  0  0  0  0
   -1.1710  -21.0062    0.0000 N   0  0  0  0  0  0  0  0  0  0  0  0
   -1.1770  -21.8312    0.0000 C   0  0  0  0  0  0  0  0  0  0  0  0
   -0.4719  -22.2510    0.0000 N   0  0  0  0  0  0  0  0  0  0  0  0
   -0.4780  -23.0760    0.0000 C   0  0  0  0  0  0  0  0  0  0  0  0
   -1.1892  -23.4811    0.0000 C   0  0  0  0  0  0  0  0  0  0  0  0
   -1.9025  -23.0654    0.0000 C   0  0  0  0  0  0  0  0  0  0  0  0
   -2.6219  -23.4706    0.0000 N   0  0  0  0  0  0  0  0  0  0  0  0
   -3.3312  -23.0549    0.0000 C   0  0  0  0  0  0  0  0  0  0  0  0
   -3.3251  -22.2300    0.0000 C   0  0  0  0  0  0  0  0  0  0  0  0
   -2.6098  -21.8206    0.0000 C   0  0  0  0  0  0  0  0  0  0  0  0
   -1.8964  -22.2405    0.0000 C   0  0  0  0  0  0  0  0  0  0  0  0
    0.2353  -23.4916    0.0000 C   0  0  0  0  0  0  0  0  0  0  0  0
    0.9548  -23.0864    0.0000 C   0  0  0  0  0  0  0  0  0  0  0  0
    1.6640  -23.5021    0.0000 C   0  0  0  0  0  0  0  0  0  0  0  0
    1.6579  -24.3271    0.0000 C   0  0  0  0  0  0  0  0  0  0  0  0
    0.9426  -24.7364    0.0000 C   0  0  0  0  0  0  0  0  0  0  0  0
    0.2292  -24.3166    0.0000 C   0  0  0  0  0  0  0  0  0  0  0  0
    0.9366  -25.5614    0.0000 C   0  0  0  0  0  0  0  0  0  0  0  0
    1.7615  -25.5675    0.0000 F   0  0  0  0  0  0  0  0  0  0  0  0
    0.9305  -26.3864    0.0000 F   0  0  0  0  0  0  0  0  0  0  0  0
    0.1116  -25.5554    0.0000 F   0  0  0  0  0  0  0  0  0  0  0  0
  1  2  1  0  0  0  0 
  2  3  1  0  0  0  0 
  3  4  1  0  0  0  0 
  4  5  1  0  0  0  0 
  5  6  1  0  0  0  0 
  6  7  2  0  0  0  0 
  7  8  1  0  0  0  0 
  8  9  2  0  0  0  0 
  9 10  1  0  0  0  0 
 10 11  1  0  0  0  0 
 11 12  2  0  0  0  0 
 12 13  1  0  0  0  0 
 13 14  2  0  0  0  0 
 14 15  1  0  0  0  0 
  6 15  1  0  0  0  0 
 10 15  2  0  0  0  0 
  8 16  1  0  0  0  0 
 16 17  2  0  0  0  0 
 17 18  1  0  0  0  0 
 18 19  2  0  0  0  0 
 19 20  1  0  0  0  0 
 20 21  2  0  0  0  0 
 16 21  1  0  0  0  0 
 20 22  1  0  0  0  0 
 22 23  1  0  0  0  0 
 22 24  1  0  0  0  0 
 22 25  1  0  0  0  0 
M  END

>  <pIC50>
6.08092190762

$$$$

  CDK    9/16/09,10:7

 22 24  0  0  0  0  0  0  0  0999 V2000
    6.8957  -19.2034    0.0000 N   0  0  0  0  0  0  0  0  0  0  0  0
    6.8957  -20.0285    0.0000 C   0  0  0  0  0  0  0  0  0  0  0  0
    6.1835  -20.4389    0.0000 C   0  0  0  0  0  0  0  0  0  0  0  0
    6.1835  -21.2639    0.0000 C   0  0  0  0  0  0  0  0  0  0  0  0
    5.4711  -21.6744    0.0000 N   0  0  0  0  0  0  0  0  0  0  0  0
    5.4711  -22.4995    0.0000 C   0  0  0  0  0  0  0  0  0  0  0  0
    6.1835  -22.9099    0.0000 N   0  0  0  0  0  0  0  0  0  0  0  0
    6.1835  -23.7350    0.0000 C   0  0  0  0  0  0  0  0  0  0  0  0
    5.4711  -24.1455    0.0000 C   0  0  0  0  0  0  0  0  0  0  0  0
    4.7588  -23.7350    0.0000 C   0  0  0  0  0  0  0  0  0  0  0  0
    4.0465  -24.1455    0.0000 N   0  0  0  0  0  0  0  0  0  0  0  0
    3.3301  -23.7350    0.0000 C   0  0  0  0  0  0  0  0  0  0  0  0
    3.3301  -22.9099    0.0000 C   0  0  0  0  0  0  0  0  0  0  0  0
    4.0465  -22.4995    0.0000 C   0  0  0  0  0  0  0  0  0  0  0  0
    4.7588  -22.9099    0.0000 C   0  0  0  0  0  0  0  0  0  0  0  0
    6.8957  -24.1455    0.0000 C   0  0  0  0  0  0  0  0  0  0  0  0
    7.6081  -23.7350    0.0000 C   0  0  0  0  0  0  0  0  0  0  0  0
    8.3245  -24.1455    0.0000 C   0  0  0  0  0  0  0  0  0  0  0  0
    8.3245  -24.9705    0.0000 C   0  0  0  0  0  0  0  0  0  0  0  0
    7.6081  -25.3810    0.0000 C   0  0  0  0  0  0  0  0  0  0  0  0
    7.6081  -26.2061    0.0000 F   0  0  0  0  0  0  0  0  0  0  0  0
    6.8957  -24.9705    0.0000 C   0  0  0  0  0  0  0  0  0  0  0  0
  1  2  1  0  0  0  0 
  2  3  1  0  0  0  0 
  3  4  1  0  0  0  0 
  4  5  1  0  0  0  0 
  5  6  1  0  0  0  0 
  6  7  2  0  0  0  0 
  7  8  1  0  0  0  0 
  8  9  2  0  0  0  0 
  9 10  1  0  0  0  0 
 10 11  1  0  0  0  0 
 11 12  2  0  0  0  0 
 12 13  1  0  0  0  0 
 13 14  2  0  0  0  0 
 14 15  1  0  0  0  0 
  6 15  1  0  0  0  0 
 10 15  2  0  0  0  0 
  8 16  1  0  0  0  0 
 16 17  2  0  0  0  0 
 17 18  1  0  0  0  0 
 18 19  2  0  0  0  0 
 19 20  1  0  0  0  0 
 20 21  1  0  0  0  0 
 20 22  2  0  0  0  0 
 16 22  1  0  0  0  0 
M  END

>  <pIC50>
6.07058107429

$$$$

  SciTegic11151111262D

 30 33  0  0  0  0            999 V2000
   15.7059  -20.3804    0.0000 C   0  0
   14.9514  -20.7180    0.0000 O   0  0
   14.8666  -21.5362    0.0000 C   0  0
   15.5321  -22.0209    0.0000 C   0  0
   15.4472  -22.8432    0.0000 C   0  0
   14.6928  -23.1766    0.0000 C   0  0
   14.0274  -22.6919    0.0000 C   0  0
   14.1122  -21.8738    0.0000 C   0  0
   13.3578  -23.1766    0.0000 C   0  0
   12.5731  -22.9237    0.0000 C   0  0
   11.9608  -23.4768    0.0000 C   0  0
   12.0457  -24.2949    0.0000 C   0  0
   12.7615  -24.7074    0.0000 O   0  0
   11.2954  -24.6325    0.0000 N   0  0
   10.7423  -24.0203    0.0000 C   0  0
    9.9173  -24.0203    0.0000 C   0  0
    9.5048  -23.3044    0.0000 C   0  0
    9.9173  -22.5885    0.0000 C   0  0
   10.7423  -22.5885    0.0000 C   0  0
   11.1548  -23.3044    0.0000 C   0  0
    9.5048  -21.8768    0.0000 S   0  0
   10.2165  -21.4643    0.0000 O   0  0
    8.7890  -22.2893    0.0000 O   0  0
    9.0923  -21.1610    0.0000 N   0  0
   13.6149  -23.9655    0.0000 C   0  0
   14.4399  -23.9655    0.0000 N   0  0
   14.9246  -24.6309    0.0000 C   0  0
   15.7427  -24.5461    0.0000 C   0  0
   16.0803  -23.7916    0.0000 O   0  0
   16.2275  -25.2115    0.0000 O   0  0
  1  2  1  0
  2  3  1  0
  3  4  1  0
  4  5  2  0
  5  6  1  0
  6  7  2  0
  7  8  1  0
  3  8  2  0
  7  9  1  0
  9 10  1  0
 10 11  2  0
 11 12  1  0
 12 13  2  0
 12 14  1  0
 14 15  1  0
 15 16  1  0
 16 17  2  0
 17 18  1  0
 18 19  2  0
 19 20  1  0
 11 20  1  0
 15 20  2  0
 18 21  1  0
 21 22  2  0
 21 23  2  0
 21 24  1  0
  9 25  2  0
 25 26  1  0
  6 26  1  0
 26 27  1  0
 27 28  1  0
 28 29  2  0
 28 30  1  0
M  END

>  <pIC50>
6.07058107429

$$$$

  CDK    9/16/09,10:7

 28 31  0  0  0  0  0  0  0  0999 V2000
   -2.5193   -3.2474    0.0000 C   0  0  0  0  0  0  0  0  0  0  0  0
   -1.8058   -3.6586    0.0000 N   0  0  0  0  0  0  0  0  0  0  0  0
   -1.8058   -4.4850    0.0000 C   0  0  0  0  0  0  0  0  0  0  0  0
   -1.0923   -3.2474    0.0000 C   0  0  0  0  0  0  0  0  0  0  0  0
   -1.0923   -2.4209    0.0000 C   0  0  0  0  0  0  0  0  0  0  0  0
   -0.3787   -2.0097    0.0000 C   0  0  0  0  0  0  0  0  0  0  0  0
    0.3390   -2.4209    0.0000 C   0  0  0  0  0  0  0  0  0  0  0  0
    0.3390   -3.2474    0.0000 C   0  0  0  0  0  0  0  0  0  0  0  0
   -0.3787   -3.6586    0.0000 C   0  0  0  0  0  0  0  0  0  0  0  0
    1.0526   -2.0097    0.0000 C   0  0  0  0  0  0  0  0  0  0  0  0
    1.0526   -1.1832    0.0000 C   0  0  0  0  0  0  0  0  0  0  0  0
    1.7662   -0.7720    0.0000 C   0  0  0  0  0  0  0  0  0  0  0  0
    1.7662    0.0544    0.0000 N   0  0  0  0  0  0  0  0  0  0  0  0
    2.4797    0.4656    0.0000 C   0  0  0  0  0  0  0  0  0  0  0  0
    3.1975    0.0544    0.0000 C   0  0  0  0  0  0  0  0  0  0  0  0
    3.1975   -0.7720    0.0000 C   0  0  0  0  0  0  0  0  0  0  0  0
    2.4797   -1.1832    0.0000 C   0  0  0  0  0  0  0  0  0  0  0  0
    2.4797   -2.0097    0.0000 C   0  0  0  0  0  0  0  0  0  0  0  0
    3.1975   -2.4209    0.0000 N   0  0  0  0  0  0  0  0  0  0  0  0
    3.9109   -2.0097    0.0000 C   0  0  0  0  0  0  0  0  0  0  0  0
    4.6245   -2.4209    0.0000 C   0  0  0  0  0  0  0  0  0  0  0  0
    5.3381   -2.0097    0.0000 C   0  0  0  0  0  0  0  0  0  0  0  0
    6.0516   -2.4209    0.0000 C   0  0  0  0  0  0  0  0  0  0  0  0
    6.0516   -3.2474    0.0000 C   0  0  0  0  0  0  0  0  0  0  0  0
    5.3381   -3.6586    0.0000 C   0  0  0  0  0  0  0  0  0  0  0  0
    4.6245   -3.2474    0.0000 C   0  0  0  0  0  0  0  0  0  0  0  0
    3.9109   -3.6586    0.0000 N   0  0  0  0  0  0  0  0  0  0  0  0
    1.7662   -2.4209    0.0000 N   0  0  0  0  0  0  0  0  0  0  0  0
  1  2  1  0  0  0  0 
  2  3  1  0  0  0  0 
  2  4  1  0  0  0  0 
  4  5  1  0  0  0  0 
  5  6  2  0  0  0  0 
  6  7  1  0  0  0  0 
  7  8  2  0  0  0  0 
  8  9  1  0  0  0  0 
  4  9  2  0  0  0  0 
  7 10  1  0  0  0  0 
 10 11  2  0  0  0  0 
 11 12  1  0  0  0  0 
 12 13  1  0  0  0  0 
 13 14  2  0  0  0  0 
 14 15  1  0  0  0  0 
 15 16  2  0  0  0  0 
 16 17  1  0  0  0  0 
 12 17  2  0  0  0  0 
 17 18  1  0  0  0  0 
 18 19  1  0  0  0  0 
 19 20  1  0  0  0  0 
 20 21  1  0  0  0  0 
 21 22  2  0  0  0  0 
 22 23  1  0  0  0  0 
 23 24  2  0  0  0  0 
 24 25  1  0  0  0  0 
 25 26  2  0  0  0  0 
 21 26  1  0  0  0  0 
 26 27  1  0  0  0  0 
 18 28  2  0  0  0  0 
 10 28  1  0  0  0  0 
M  END

>  <pIC50>
6.07058107429

$$$$

  CDK    9/16/09,10:7

 26 28  0  0  0  0  0  0  0  0999 V2000
   15.5609   -0.6689    0.0000 C   0  0  0  0  0  0  0  0  0  0  0  0
   14.8357   -1.0579    0.0000 O   0  0  0  0  0  0  0  0  0  0  0  0
   14.1302   -0.6267    0.0000 C   0  0  0  0  0  0  0  0  0  0  0  0
   13.4050   -1.0199    0.0000 C   0  0  0  0  0  0  0  0  0  0  0  0
   12.7036   -0.5845    0.0000 O   0  0  0  0  0  0  0  0  0  0  0  0
   11.9784   -0.9776    0.0000 C   0  0  0  0  0  0  0  0  0  0  0  0
   11.9545   -1.8021    0.0000 C   0  0  0  0  0  0  0  0  0  0  0  0
   11.2251   -2.1911    0.0000 C   0  0  0  0  0  0  0  0  0  0  0  0
   10.5238   -1.7599    0.0000 C   0  0  0  0  0  0  0  0  0  0  0  0
    9.7986   -2.1530    0.0000 C   0  0  0  0  0  0  0  0  0  0  0  0
    9.0973   -1.7177    0.0000 N   0  0  0  0  0  0  0  0  0  0  0  0
    9.1212   -0.8932    0.0000 N   0  0  0  0  0  0  0  0  0  0  0  0
    8.4198   -0.4621    0.0000 C   0  0  0  0  0  0  0  0  0  0  0  0
    8.4437    0.3666    0.0000 C   0  0  0  0  0  0  0  0  0  0  0  0
    7.6946   -0.8510    0.0000 C   0  0  0  0  0  0  0  0  0  0  0  0
    9.8464   -0.5001    0.0000 C   0  0  0  0  0  0  0  0  0  0  0  0
    9.8703    0.3244    0.0000 O   0  0  0  0  0  0  0  0  0  0  0  0
   10.5477   -0.9354    0.0000 C   0  0  0  0  0  0  0  0  0  0  0  0
   11.2771   -0.5423    0.0000 C   0  0  0  0  0  0  0  0  0  0  0  0
    9.7747   -2.9775    0.0000 N   0  0  0  0  0  0  0  0  0  0  0  0
    9.0495   -3.3664    0.0000 C   0  0  0  0  0  0  0  0  0  0  0  0
    8.9368   -4.1844    0.0000 C   0  0  0  0  0  0  0  0  0  0  0  0
    8.1280   -4.3336    0.0000 C   0  0  0  0  0  0  0  0  0  0  0  0
    7.7699   -5.0768    0.0000 C   0  0  0  0  0  0  0  0  0  0  0  0
    7.7348   -3.6042    0.0000 N   0  0  0  0  0  0  0  0  0  0  0  0
    8.3063   -3.0084    0.0000 N   0  0  0  0  0  0  0  0  0  0  0  0
  1  2  1  0  0  0  0 
  2  3  1  0  0  0  0 
  3  4  1  0  0  0  0 
  4  5  1  0  0  0  0 
  5  6  1  0  0  0  0 
  6  7  1  0  0  0  0 
  7  8  2  0  0  0  0 
  8  9  1  0  0  0  0 
  9 10  1  0  0  0  0 
 10 11  2  0  0  0  0 
 11 12  1  0  0  0  0 
 12 13  1  0  0  0  0 
 13 14  1  0  0  0  0 
 13 15  1  0  0  0  0 
 12 16  1  0  0  0  0 
 16 17  2  0  0  0  0 
 16 18  1  0  0  0  0 
  9 18  2  0  0  0  0 
 18 19  1  0  0  0  0 
  6 19  2  0  0  0  0 
 10 20  1  0  0  0  0 
 20 21  1  0  0  0  0 
 21 22  1  0  0  0  0 
 22 23  2  0  0  0  0 
 23 24  1  0  0  0  0 
 23 25  1  0  0  0  0 
 25 26  1  0  0  0  0 
 21 26  2  0  0  0  0 
M  END

>  <pIC50>
6.0486624812

$$$$

  CDK    9/16/09,10:7

 31 34  0  0  0  0  0  0  0  0999 V2000
    0.6241  -11.8646    0.0000 C   0  0  0  0  0  0  0  0  0  0  0  0
    0.6241  -11.0396    0.0000 O   0  0  0  0  0  0  0  0  0  0  0  0
    1.3400  -10.6271    0.0000 C   0  0  0  0  0  0  0  0  0  0  0  0
    1.3400   -9.8021    0.0000 C   0  0  0  0  0  0  0  0  0  0  0  0
    2.0558   -9.3896    0.0000 C   0  0  0  0  0  0  0  0  0  0  0  0
    2.0558   -8.5646    0.0000 N   0  0  0  0  0  0  0  0  0  0  0  0
    1.3400   -8.1521    0.0000 C   0  0  0  0  0  0  0  0  0  0  0  0
    0.6241   -8.5646    0.0000 N   0  0  0  0  0  0  0  0  0  0  0  0
   -0.0876   -8.1521    0.0000 C   0  0  0  0  0  0  0  0  0  0  0  0
   -0.8035   -8.5646    0.0000 N   0  0  0  0  0  0  0  0  0  0  0  0
   -0.8035   -9.3896    0.0000 C   0  0  0  0  0  0  0  0  0  0  0  0
   -0.0876   -9.8021    0.0000 C   0  0  0  0  0  0  0  0  0  0  0  0
   -0.0876  -10.6271    0.0000 C   0  0  0  0  0  0  0  0  0  0  0  0
   -0.8035  -11.0396    0.0000 C   0  0  0  0  0  0  0  0  0  0  0  0
   -1.5193  -10.6271    0.0000 C   0  0  0  0  0  0  0  0  0  0  0  0
   -1.5193   -9.8021    0.0000 C   0  0  0  0  0  0  0  0  0  0  0  0
   -2.2310   -9.3896    0.0000 C   0  0  0  0  0  0  0  0  0  0  0  0
   -0.0876   -7.3271    0.0000 N   0  0  0  0  0  0  0  0  0  0  0  0
   -0.7040   -6.7740    0.0000 C   0  0  0  0  0  0  0  0  0  0  0  0
   -0.3665   -6.0196    0.0000 C   0  0  0  0  0  0  0  0  0  0  0  0
    0.4517   -6.1086    0.0000 N   0  0  0  0  0  0  0  0  0  0  0  0
    0.6241   -6.9146    0.0000 C   0  0  0  0  0  0  0  0  0  0  0  0
    1.3400   -7.3271    0.0000 C   0  0  0  0  0  0  0  0  0  0  0  0
    2.0558   -6.9146    0.0000 C   0  0  0  0  0  0  0  0  0  0  0  0
    2.0558   -6.0896    0.0000 O   0  0  0  0  0  0  0  0  0  0  0  0
    2.7675   -7.3271    0.0000 N   0  0  0  0  0  0  0  0  0  0  0  0
    2.7675   -9.8021    0.0000 C   0  0  0  0  0  0  0  0  0  0  0  0
    2.7675  -10.6271    0.0000 C   0  0  0  0  0  0  0  0  0  0  0  0
    3.4834  -11.0396    0.0000 O   0  0  0  0  0  0  0  0  0  0  0  0
    3.4834  -11.8646    0.0000 C   0  0  0  0  0  0  0  0  0  0  0  0
    2.0558  -11.0396    0.0000 C   0  0  0  0  0  0  0  0  0  0  0  0
  1  2  1  0  0  0  0 
  2  3  1  0  0  0  0 
  3  4  1  0  0  0  0 
  4  5  2  0  0  0  0 
  5  6  1  0  0  0  0 
  6  7  1  0  0  0  0 
  7  8  1  0  0  0  0 
  8  9  2  0  0  0  0 
  9 10  1  0  0  0  0 
 10 11  1  0  0  0  0 
 11 12  1  0  0  0  0 
 12 13  1  0  0  0  0 
 13 14  1  0  0  0  0 
 14 15  1  0  0  0  0 
 15 16  1  0  0  0  0 
 11 16  1  0  0  0  0 
 16 17  1  0  0  0  0 
  9 18  1  0  0  0  0 
 18 19  1  0  0  0  0 
 19 20  2  0  0  0  0 
 20 21  1  0  0  0  0 
 21 22  2  0  0  0  0 
 18 22  1  0  0  0  0 
 22 23  1  0  0  0  0 
  7 23  2  0  0  0  0 
 23 24  1  0  0  0  0 
 24 25  2  0  0  0  0 
 24 26  1  0  0  0  0 
  5 27  1  0  0  0  0 
 27 28  2  0  0  0  0 
 28 29  1  0  0  0  0 
 29 30  1  0  0  0  0 
 28 31  1  0  0  0  0 
  3 31  2  0  0  0  0 
M  END

>  <pIC50>
6.0

$$$$

  CDK    9/16/09,10:7

 26 29  0  0  0  0  0  0  0  0999 V2000
   12.3906   -8.5913    0.0000 C   0  0  0  0  0  0  0  0  0  0  0  0
   11.6868   -9.0230    0.0000 O   0  0  0  0  0  0  0  0  0  0  0  0
   10.9629   -8.6272    0.0000 C   0  0  0  0  0  0  0  0  0  0  0  0
   10.2611   -9.0554    0.0000 C   0  0  0  0  0  0  0  0  0  0  0  0
    9.5371   -8.6596    0.0000 C   0  0  0  0  0  0  0  0  0  0  0  0
    9.5187   -7.8377    0.0000 C   0  0  0  0  0  0  0  0  0  0  0  0
    8.7949   -7.4420    0.0000 N   0  0  0  0  0  0  0  0  0  0  0  0
    8.0930   -7.8700    0.0000 C   0  0  0  0  0  0  0  0  0  0  0  0
    8.1115   -8.6919    0.0000 N   0  0  0  0  0  0  0  0  0  0  0  0
    7.4097   -9.1200    0.0000 C   0  0  0  0  0  0  0  0  0  0  0  0
    6.6858   -8.7242    0.0000 C   0  0  0  0  0  0  0  0  0  0  0  0
    6.6674   -7.9024    0.0000 C   0  0  0  0  0  0  0  0  0  0  0  0
    7.3692   -7.4743    0.0000 N   0  0  0  0  0  0  0  0  0  0  0  0
    5.9435   -7.5066    0.0000 C   0  0  0  0  0  0  0  0  0  0  0  0
    5.1970   -7.8578    0.0000 N   0  0  0  0  0  0  0  0  0  0  0  0
    4.6328   -7.2625    0.0000 C   0  0  0  0  0  0  0  0  0  0  0  0
    5.0285   -6.5387    0.0000 C   0  0  0  0  0  0  0  0  0  0  0  0
    5.8363   -6.6887    0.0000 S   0  0  0  0  0  0  0  0  0  0  0  0
   10.2226   -7.4060    0.0000 C   0  0  0  0  0  0  0  0  0  0  0  0
   10.9464   -7.8018    0.0000 C   0  0  0  0  0  0  0  0  0  0  0  0
   13.1144   -8.9871    0.0000 C   0  0  0  0  0  0  0  0  0  0  0  0
   13.8163   -8.5590    0.0000 C   0  0  0  0  0  0  0  0  0  0  0  0
   14.5401   -8.9548    0.0000 C   0  0  0  0  0  0  0  0  0  0  0  0
   14.5586   -9.7766    0.0000 C   0  0  0  0  0  0  0  0  0  0  0  0
   13.8548  -10.2084    0.0000 C   0  0  0  0  0  0  0  0  0  0  0  0
   13.1309   -9.8126    0.0000 C   0  0  0  0  0  0  0  0  0  0  0  0
  1  2  1  0  0  0  0 
  2  3  1  0  0  0  0 
  3  4  1  0  0  0  0 
  4  5  2  0  0  0  0 
  5  6  1  0  0  0  0 
  6  7  1  0  0  0  0 
  7  8  1  0  0  0  0 
  8  9  2  0  0  0  0 
  9 10  1  0  0  0  0 
 10 11  2  0  0  0  0 
 11 12  1  0  0  0  0 
 12 13  2  0  0  0  0 
  8 13  1  0  0  0  0 
 12 14  1  0  0  0  0 
 14 15  2  0  0  0  0 
 15 16  1  0  0  0  0 
 16 17  2  0  0  0  0 
 17 18  1  0  0  0  0 
 14 18  1  0  0  0  0 
  6 19  2  0  0  0  0 
 19 20  1  0  0  0  0 
  3 20  2  0  0  0  0 
  1 21  1  0  0  0  0 
 21 22  2  0  0  0  0 
 22 23  1  0  0  0  0 
 23 24  2  0  0  0  0 
 24 25  1  0  0  0  0 
 25 26  2  0  0  0  0 
 21 26  1  0  0  0  0 
M  END

>  <pIC50>
6.0

$$$$

  CDK    9/16/09,10:7

 25 28  0  0  0  0  0  0  0  0999 V2000
    1.0050  -12.9351    0.0000 N   0  0  0  0  0  0  0  0  0  0  0  0
    1.7319  -13.3306    0.0000 C   0  0  0  0  0  0  0  0  0  0  0  0
    2.4370  -12.8961    0.0000 C   0  0  0  0  0  0  0  0  0  0  0  0
    3.1638  -13.2916    0.0000 C   0  0  0  0  0  0  0  0  0  0  0  0
    3.1821  -14.1195    0.0000 C   0  0  0  0  0  0  0  0  0  0  0  0
    2.4790  -14.5504    0.0000 C   0  0  0  0  0  0  0  0  0  0  0  0
    2.4993  -15.3748    0.0000 O   0  0  0  0  0  0  0  0  0  0  0  0
    3.2261  -15.7702    0.0000 C   0  0  0  0  0  0  0  0  0  0  0  0
    3.9292  -15.3393    0.0000 C   0  0  0  0  0  0  0  0  0  0  0  0
    4.6561  -15.7348    0.0000 C   0  0  0  0  0  0  0  0  0  0  0  0
    4.6763  -16.5592    0.0000 C   0  0  0  0  0  0  0  0  0  0  0  0
    3.9732  -16.9900    0.0000 C   0  0  0  0  0  0  0  0  0  0  0  0
    3.2464  -16.5945    0.0000 C   0  0  0  0  0  0  0  0  0  0  0  0
    1.7521  -14.1550    0.0000 C   0  0  0  0  0  0  0  0  0  0  0  0
    0.3019  -13.3659    0.0000 C   0  0  0  0  0  0  0  0  0  0  0  0
    0.3222  -14.1903    0.0000 N   0  0  0  0  0  0  0  0  0  0  0  0
   -0.3809  -14.6211    0.0000 C   0  0  0  0  0  0  0  0  0  0  0  0
   -1.1078  -14.2256    0.0000 C   0  0  0  0  0  0  0  0  0  0  0  0
   -1.1281  -13.4014    0.0000 C   0  0  0  0  0  0  0  0  0  0  0  0
   -0.4250  -12.9705    0.0000 N   0  0  0  0  0  0  0  0  0  0  0  0
   -1.8549  -13.0058    0.0000 C   0  0  0  0  0  0  0  0  0  0  0  0
   -2.5993  -13.3617    0.0000 N   0  0  0  0  0  0  0  0  0  0  0  0
   -3.1682  -12.7600    0.0000 C   0  0  0  0  0  0  0  0  0  0  0  0
   -2.7747  -12.0369    0.0000 C   0  0  0  0  0  0  0  0  0  0  0  0
   -1.9605  -12.1877    0.0000 S   0  0  0  0  0  0  0  0  0  0  0  0
  1  2  1  0  0  0  0 
  2  3  2  0  0  0  0 
  3  4  1  0  0  0  0 
  4  5  2  0  0  0  0 
  5  6  1  0  0  0  0 
  6  7  1  0  0  0  0 
  7  8  1  0  0  0  0 
  8  9  2  0  0  0  0 
  9 10  1  0  0  0  0 
 10 11  2  0  0  0  0 
 11 12  1  0  0  0  0 
 12 13  2  0  0  0  0 
  8 13  1  0  0  0  0 
  6 14  2  0  0  0  0 
  2 14  1  0  0  0  0 
  1 15  1  0  0  0  0 
 15 16  2  0  0  0  0 
 16 17  1  0  0  0  0 
 17 18  2  0  0  0  0 
 18 19  1  0  0  0  0 
 19 20  2  0  0  0  0 
 15 20  1  0  0  0  0 
 19 21  1  0  0  0  0 
 21 22  2  0  0  0  0 
 22 23  1  0  0  0  0 
 23 24  2  0  0  0  0 
 24 25  1  0  0  0  0 
 21 25  1  0  0  0  0 
M  END

>  <pIC50>
6.0

$$$$

  CDK    9/16/09,10:7

 34 37  0  0  0  0  0  0  0  0999 V2000
   12.7574  -11.1893    0.0000 C   0  0  0  0  0  0  0  0  0  0  0  0
   12.0340  -11.5891    0.0000 O   0  0  0  0  0  0  0  0  0  0  0  0
   12.0183  -12.4115    0.0000 C   0  0  0  0  0  0  0  0  0  0  0  0
   12.7221  -12.8386    0.0000 C   0  0  0  0  0  0  0  0  0  0  0  0
   12.7066  -13.6651    0.0000 C   0  0  0  0  0  0  0  0  0  0  0  0
   11.9829  -14.0608    0.0000 C   0  0  0  0  0  0  0  0  0  0  0  0
   11.2791  -13.6337    0.0000 C   0  0  0  0  0  0  0  0  0  0  0  0
   11.2949  -12.8113    0.0000 C   0  0  0  0  0  0  0  0  0  0  0  0
   10.6526  -14.1730    0.0000 C   0  0  0  0  0  0  0  0  0  0  0  0
    9.8494  -13.9869    0.0000 C   0  0  0  0  0  0  0  0  0  0  0  0
    9.2858  -14.5894    0.0000 C   0  0  0  0  0  0  0  0  0  0  0  0
    9.4391  -15.3976    0.0000 C   0  0  0  0  0  0  0  0  0  0  0  0
   10.1871  -15.7484    0.0000 O   0  0  0  0  0  0  0  0  0  0  0  0
    8.7198  -15.7970    0.0000 N   0  0  0  0  0  0  0  0  0  0  0  0
    8.1173  -15.2334    0.0000 C   0  0  0  0  0  0  0  0  0  0  0  0
    7.2952  -15.3027    0.0000 C   0  0  0  0  0  0  0  0  0  0  0  0
    6.8240  -14.6240    0.0000 C   0  0  0  0  0  0  0  0  0  0  0  0
    7.1749  -13.8760    0.0000 C   0  0  0  0  0  0  0  0  0  0  0  0
    7.9970  -13.8067    0.0000 C   0  0  0  0  0  0  0  0  0  0  0  0
    8.4682  -14.4854    0.0000 C   0  0  0  0  0  0  0  0  0  0  0  0
    6.7037  -13.1974    0.0000 S   0  0  0  0  0  0  0  0  0  0  0  0
    6.0250  -13.6686    0.0000 O   0  0  0  0  0  0  0  0  0  0  0  0
    7.3824  -12.7262    0.0000 O   0  0  0  0  0  0  0  0  0  0  0  0
    6.2328  -12.5228    0.0000 N   0  0  0  0  0  0  0  0  0  0  0  0
   10.9747  -14.9332    0.0000 C   0  0  0  0  0  0  0  0  0  0  0  0
   11.7968  -14.8639    0.0000 N   0  0  0  0  0  0  0  0  0  0  0  0
   12.3361  -15.4904    0.0000 C   0  0  0  0  0  0  0  0  0  0  0  0
   13.1438  -15.3330    0.0000 C   0  0  0  0  0  0  0  0  0  0  0  0
   13.4172  -14.5570    0.0000 O   0  0  0  0  0  0  0  0  0  0  0  0
   13.6831  -15.9595    0.0000 O   0  0  0  0  0  0  0  0  0  0  0  0
   14.4954  -15.8059    0.0000 C   0  0  0  0  0  0  0  0  0  0  0  0
   14.3418  -14.9936    0.0000 C   0  0  0  0  0  0  0  0  0  0  0  0
   15.3073  -15.6481    0.0000 C   0  0  0  0  0  0  0  0  0  0  0  0
   14.6487  -16.6140    0.0000 C   0  0  0  0  0  0  0  0  0  0  0  0
  1  2  1  0  0  0  0 
  2  3  1  0  0  0  0 
  3  4  1  0  0  0  0 
  4  5  2  0  0  0  0 
  5  6  1  0  0  0  0 
  6  7  2  0  0  0  0 
  7  8  1  0  0  0  0 
  3  8  2  0  0  0  0 
  7  9  1  0  0  0  0 
  9 10  1  0  0  0  0 
 10 11  2  0  0  0  0 
 11 12  1  0  0  0  0 
 12 13  2  0  0  0  0 
 12 14  1  0  0  0  0 
 14 15  1  0  0  0  0 
 15 16  1  0  0  0  0 
 16 17  2  0  0  0  0 
 17 18  1  0  0  0  0 
 18 19  2  0  0  0  0 
 19 20  1  0  0  0  0 
 11 20  1  0  0  0  0 
 15 20  2  0  0  0  0 
 18 21  1  0  0  0  0 
 21 22  2  0  0  0  0 
 21 23  2  0  0  0  0 
 21 24  1  0  0  0  0 
  9 25  2  0  0  0  0 
 25 26  1  0  0  0  0 
  6 26  1  0  0  0  0 
 26 27  1  0  0  0  0 
 27 28  1  0  0  0  0 
 28 29  2  0  0  0  0 
 28 30  1  0  0  0  0 
 30 31  1  0  0  0  0 
 31 32  1  0  0  0  0 
 31 33  1  0  0  0  0 
 31 34  1  0  0  0  0 
M  END

>  <pIC50>
6.0

$$$$

  CDK    9/16/09,10:7

 19 21  0  0  0  0  0  0  0  0999 V2000
    4.1072  -19.8439    0.0000 F   0  0  0  0  0  0  0  0  0  0  0  0
    3.3883  -19.4320    0.0000 C   0  0  0  0  0  0  0  0  0  0  0  0
    2.6735  -19.8439    0.0000 C   0  0  0  0  0  0  0  0  0  0  0  0
    1.9588  -19.4320    0.0000 C   0  0  0  0  0  0  0  0  0  0  0  0
    1.9588  -18.6041    0.0000 C   0  0  0  0  0  0  0  0  0  0  0  0
    1.2439  -18.1922    0.0000 N   0  0  0  0  0  0  0  0  0  0  0  0
    0.5250  -18.6041    0.0000 C   0  0  0  0  0  0  0  0  0  0  0  0
    0.5250  -19.4320    0.0000 N   0  0  0  0  0  0  0  0  0  0  0  0
   -0.1898  -19.8439    0.0000 C   0  0  0  0  0  0  0  0  0  0  0  0
   -0.9046  -19.4320    0.0000 C   0  0  0  0  0  0  0  0  0  0  0  0
   -0.9046  -18.6041    0.0000 C   0  0  0  0  0  0  0  0  0  0  0  0
   -0.1898  -18.1922    0.0000 N   0  0  0  0  0  0  0  0  0  0  0  0
   -1.6194  -18.1922    0.0000 C   0  0  0  0  0  0  0  0  0  0  0  0
   -2.3768  -18.5293    0.0000 N   0  0  0  0  0  0  0  0  0  0  0  0
   -2.9291  -17.9138    0.0000 C   0  0  0  0  0  0  0  0  0  0  0  0
   -2.5130  -17.1990    0.0000 C   0  0  0  0  0  0  0  0  0  0  0  0
   -1.7082  -17.3711    0.0000 S   0  0  0  0  0  0  0  0  0  0  0  0
    2.6735  -18.1922    0.0000 C   0  0  0  0  0  0  0  0  0  0  0  0
    3.3883  -18.6041    0.0000 C   0  0  0  0  0  0  0  0  0  0  0  0
  1  2  1  0  0  0  0 
  2  3  1  0  0  0  0 
  3  4  2  0  0  0  0 
  4  5  1  0  0  0  0 
  5  6  1  0  0  0  0 
  6  7  1  0  0  0  0 
  7  8  2  0  0  0  0 
  8  9  1  0  0  0  0 
  9 10  2  0  0  0  0 
 10 11  1  0  0  0  0 
 11 12  2  0  0  0  0 
  7 12  1  0  0  0  0 
 11 13  1  0  0  0  0 
 13 14  2  0  0  0  0 
 14 15  1  0  0  0  0 
 15 16  2  0  0  0  0 
 16 17  1  0  0  0  0 
 13 17  1  0  0  0  0 
  5 18  2  0  0  0  0 
 18 19  1  0  0  0  0 
  2 19  2  0  0  0  0 
M  END

>  <pIC50>
6.0

$$$$

  CDK    9/16/09,10:7

 27 30  0  0  0  0  0  0  0  0999 V2000
   12.2888  -17.7062    0.0000 C   0  0  0  0  0  0  0  0  0  0  0  0
   12.2892  -18.5285    0.0000 C   0  0  0  0  0  0  0  0  0  0  0  0
   13.0043  -18.9400    0.0000 C   0  0  0  0  0  0  0  0  0  0  0  0
   11.5760  -18.9446    0.0000 N   0  0  0  0  0  0  0  0  0  0  0  0
   11.5764  -19.7668    0.0000 N   0  0  0  0  0  0  0  0  0  0  0  0
   10.8653  -20.1794    0.0000 C   0  0  0  0  0  0  0  0  0  0  0  0
   10.8657  -21.0016    0.0000 N   0  0  0  0  0  0  0  0  0  0  0  0
   11.5809  -21.4131    0.0000 C   0  0  0  0  0  0  0  0  0  0  0  0
   12.3313  -21.0763    0.0000 C   0  0  0  0  0  0  0  0  0  0  0  0
   12.8840  -21.6896    0.0000 C   0  0  0  0  0  0  0  0  0  0  0  0
   13.7041  -21.6003    0.0000 C   0  0  0  0  0  0  0  0  0  0  0  0
   12.4724  -22.4048    0.0000 N   0  0  0  0  0  0  0  0  0  0  0  0
   11.6665  -22.2313    0.0000 N   0  0  0  0  0  0  0  0  0  0  0  0
   10.1503  -19.7679    0.0000 C   0  0  0  0  0  0  0  0  0  0  0  0
    9.4392  -20.1805    0.0000 C   0  0  0  0  0  0  0  0  0  0  0  0
    8.7240  -19.7689    0.0000 C   0  0  0  0  0  0  0  0  0  0  0  0
    8.7236  -18.9467    0.0000 C   0  0  0  0  0  0  0  0  0  0  0  0
    9.4347  -18.5341    0.0000 C   0  0  0  0  0  0  0  0  0  0  0  0
   10.1499  -18.9457    0.0000 C   0  0  0  0  0  0  0  0  0  0  0  0
   10.8610  -18.5330    0.0000 C   0  0  0  0  0  0  0  0  0  0  0  0
   10.8626  -17.7073    0.0000 O   0  0  0  0  0  0  0  0  0  0  0  0
    8.0085  -18.5351    0.0000 N   0  0  0  0  0  0  0  0  0  0  0  0
    7.2974  -18.9478    0.0000 C   0  0  0  0  0  0  0  0  0  0  0  0
    6.5823  -18.5362    0.0000 C   0  0  0  0  0  0  0  0  0  0  0  0
    6.5819  -17.7140    0.0000 O   0  0  0  0  0  0  0  0  0  0  0  0
    7.2929  -17.3014    0.0000 C   0  0  0  0  0  0  0  0  0  0  0  0
    8.0081  -17.7130    0.0000 C   0  0  0  0  0  0  0  0  0  0  0  0
  1  2  1  0  0  0  0 
  2  3  1  0  0  0  0 
  2  4  1  0  0  0  0 
  4  5  1  0  0  0  0 
  5  6  2  0  0  0  0 
  6  7  1  0  0  0  0 
  7  8  1  0  0  0  0 
  8  9  2  0  0  0  0 
  9 10  1  0  0  0  0 
 10 11  1  0  0  0  0 
 10 12  2  0  0  0  0 
 12 13  1  0  0  0  0 
  8 13  1  0  0  0  0 
  6 14  1  0  0  0  0 
 14 15  1  0  0  0  0 
 15 16  2  0  0  0  0 
 16 17  1  0  0  0  0 
 17 18  2  0  0  0  0 
 18 19  1  0  0  0  0 
 14 19  2  0  0  0  0 
 19 20  1  0  0  0  0 
  4 20  1  0  0  0  0 
 20 21  2  0  0  0  0 
 17 22  1  0  0  0  0 
 22 23  1  0  0  0  0 
 23 24  1  0  0  0  0 
 24 25  1  0  0  0  0 
 25 26  1  0  0  0  0 
 26 27  1  0  0  0  0 
 22 27  1  0  0  0  0 
M  END

>  <pIC50>
5.95860731484

$$$$

  CDK    9/16/09,10:7

 58 64  0  0  0  0  0  0  0  0999 V2000
    2.6974   -5.1813    0.0000 C   0  0  0  0  0  0  0  0  0  0  0  0
    2.7145   -4.3551    0.0000 O   0  0  0  0  0  0  0  0  0  0  0  0
    3.4406   -3.9579    0.0000 C   0  0  0  0  0  0  0  0  0  0  0  0
    3.4578   -3.1317    0.0000 C   0  0  0  0  0  0  0  0  0  0  0  0
    2.7490   -2.7069    0.0000 C   0  0  0  0  0  0  0  0  0  0  0  0
    2.0271   -3.1041    0.0000 C   0  0  0  0  0  0  0  0  0  0  0  0
    1.3224   -2.6751    0.0000 C   0  0  0  0  0  0  0  0  0  0  0  0
    2.0098   -3.9303    0.0000 O   0  0  0  0  0  0  0  0  0  0  0  0
    1.2879   -4.3276    0.0000 C   0  0  0  0  0  0  0  0  0  0  0  0
    0.5832   -3.8986    0.0000 O   0  0  0  0  0  0  0  0  0  0  0  0
    1.2707   -5.1538    0.0000 O   0  0  0  0  0  0  0  0  0  0  0  0
    0.5488   -5.5510    0.0000 C   0  0  0  0  0  0  0  0  0  0  0  0
    0.5316   -6.3730    0.0000 C   0  0  0  0  0  0  0  0  0  0  0  0
   -0.1945   -6.7703    0.0000 C   0  0  0  0  0  0  0  0  0  0  0  0
   -0.8992   -6.3455    0.0000 C   0  0  0  0  0  0  0  0  0  0  0  0
   -1.6211   -6.7427    0.0000 O   0  0  0  0  0  0  0  0  0  0  0  0
   -0.8819   -5.5193    0.0000 C   0  0  0  0  0  0  0  0  0  0  0  0
   -0.1601   -5.1220    0.0000 C   0  0  0  0  0  0  0  0  0  0  0  0
    4.1797   -2.7345    0.0000 C   0  0  0  0  0  0  0  0  0  0  0  0
    4.1969   -1.9124    0.0000 C   0  0  0  0  0  0  0  0  0  0  0  0
    3.4923   -1.4834    0.0000 C   0  0  0  0  0  0  0  0  0  0  0  0
    3.5053   -0.6572    0.0000 C   0  0  0  0  0  0  0  0  0  0  0  0
    2.8006   -0.2324    0.0000 O   0  0  0  0  0  0  0  0  0  0  0  0
    2.8178    0.5938    0.0000 C   0  0  0  0  0  0  0  0  0  0  0  0
    4.2313   -0.2600    0.0000 C   0  0  0  0  0  0  0  0  0  0  0  0
    4.2486    0.5620    0.0000 O   0  0  0  0  0  0  0  0  0  0  0  0
    4.9360   -0.6890    0.0000 C   0  0  0  0  0  0  0  0  0  0  0  0
    5.6580   -0.2918    0.0000 C   0  0  0  0  0  0  0  0  0  0  0  0
    5.6751    0.5344    0.0000 O   0  0  0  0  0  0  0  0  0  0  0  0
    6.3626   -0.7167    0.0000 C   0  0  0  0  0  0  0  0  0  0  0  0
    6.3496   -1.5428    0.0000 C   0  0  0  0  0  0  0  0  0  0  0  0
    7.0543   -1.9717    0.0000 O   0  0  0  0  0  0  0  0  0  0  0  0
    7.7762   -1.5704    0.0000 C   0  0  0  0  0  0  0  0  0  0  0  0
    5.6235   -1.9400    0.0000 C   0  0  0  0  0  0  0  0  0  0  0  0
    4.9188   -1.5152    0.0000 C   0  0  0  0  0  0  0  0  0  0  0  0
    5.6063   -2.7662    0.0000 C   0  0  0  0  0  0  0  0  0  0  0  0
    6.3151   -3.1910    0.0000 C   0  0  0  0  0  0  0  0  0  0  0  0
    7.0370   -2.7938    0.0000 O   0  0  0  0  0  0  0  0  0  0  0  0
    7.7417   -3.2187    0.0000 C   0  0  0  0  0  0  0  0  0  0  0  0
    6.2980   -4.0172    0.0000 C   0  0  0  0  0  0  0  0  0  0  0  0
    5.5718   -4.4144    0.0000 C   0  0  0  0  0  0  0  0  0  0  0  0
    5.5547   -5.2406    0.0000 O   0  0  0  0  0  0  0  0  0  0  0  0
    4.8672   -3.9896    0.0000 C   0  0  0  0  0  0  0  0  0  0  0  0
    4.1453   -4.3869    0.0000 C   0  0  0  0  0  0  0  0  0  0  0  0
    4.1281   -5.2089    0.0000 O   0  0  0  0  0  0  0  0  0  0  0  0
    4.8844   -3.1634    0.0000 C   0  0  0  0  0  0  0  0  0  0  0  0
    2.7661   -1.8807    0.0000 C   0  0  0  0  0  0  0  0  0  0  0  0
    2.0614   -1.4559    0.0000 C   0  0  0  0  0  0  0  0  0  0  0  0
    2.0787   -0.6297    0.0000 C   0  0  0  0  0  0  0  0  0  0  0  0
    1.3395   -1.8531    0.0000 O   0  0  0  0  0  0  0  0  0  0  0  0
    0.6307   -1.4241    0.0000 C   0  0  0  0  0  0  0  0  0  0  0  0
    0.6479   -0.6021    0.0000 O   0  0  0  0  0  0  0  0  0  0  0  0
   -0.0912   -1.8214    0.0000 C   0  0  0  0  0  0  0  0  0  0  0  0
   -0.1084   -2.6476    0.0000 C   0  0  0  0  0  0  0  0  0  0  0  0
   -0.8303   -3.0448    0.0000 C   0  0  0  0  0  0  0  0  0  0  0  0
   -1.5350   -2.6200    0.0000 C   0  0  0  0  0  0  0  0  0  0  0  0
   -1.5178   -1.7938    0.0000 C   0  0  0  0  0  0  0  0  0  0  0  0
   -0.7959   -1.3966    0.0000 C   0  0  0  0  0  0  0  0  0  0  0  0
  1  2  1  0  0  0  0 
  2  3  1  0  0  0  0 
  3  4  2  0  0  0  0 
  4  5  1  0  0  0  0 
  5  6  1  0  0  0  0 
  6  7  1  6  0  0  0 
  6  8  1  0  0  0  0 
  8  9  1  0  0  0  0 
  9 10  2  0  0  0  0 
  9 11  1  0  0  0  0 
 11 12  1  0  0  0  0 
 12 13  2  0  0  0  0 
 13 14  1  0  0  0  0 
 14 15  2  0  0  0  0 
 15 16  1  0  0  0  0 
 15 17  1  0  0  0  0 
 17 18  2  0  0  0  0 
 12 18  1  0  0  0  0 
  4 19  1  0  0  0  0 
 19 20  1  0  0  0  0 
 20 21  1  0  0  0  0 
 21 22  2  0  0  0  0 
 22 23  1  0  0  0  0 
 23 24  1  0  0  0  0 
 22 25  1  0  0  0  0 
 25 26  2  0  0  0  0 
 25 27  1  0  0  0  0 
 27 28  2  0  0  0  0 
 28 29  1  0  0  0  0 
 28 30  1  0  0  0  0 
 30 31  2  0  0  0  0 
 31 32  1  0  0  0  0 
 32 33  1  0  0  0  0 
 31 34  1  0  0  0  0 
 34 35  1  0  0  0  0 
 20 35  2  0  0  0  0 
 27 35  1  0  0  0  0 
 34 36  2  0  0  0  0 
 36 37  1  0  0  0  0 
 37 38  1  0  0  0  0 
 38 39  1  0  0  0  0 
 37 40  2  0  0  0  0 
 40 41  1  0  0  0  0 
 41 42  1  0  0  0  0 
 41 43  2  0  0  0  0 
 43 44  1  0  0  0  0 
  3 44  1  0  0  0  0 
 44 45  2  0  0  0  0 
 43 46  1  0  0  0  0 
 19 46  2  0  0  0  0 
 36 46  1  0  0  0  0 
 21 47  1  0  0  0  0 
 47 48  1  0  0  0  0 
 48 49  1  6  0  0  0 
 48 50  1  0  0  0  0 
 50 51  1  0  0  0  0 
 51 52  2  0  0  0  0 
 51 53  1  0  0  0  0 
 53 54  2  0  0  0  0 
 54 55  1  0  0  0  0 
 55 56  2  0  0  0  0 
 56 57  1  0  0  0  0 
 57 58  2  0  0  0  0 
 53 58  1  0  0  0  0 
M  END

>  <pIC50>
5.95860731484

$$$$

  CDK    9/16/09,10:7

 25 28  0  0  0  0  0  0  0  0999 V2000
    9.1246    0.8422    0.0000 C   0  0  0  0  0  0  0  0  0  0  0  0
    9.4504    0.0835    0.0000 C   0  0  0  0  0  0  0  0  0  0  0  0
   10.2534   -0.0942    0.0000 C   0  0  0  0  0  0  0  0  0  0  0  0
   10.3328   -0.9161    0.0000 C   0  0  0  0  0  0  0  0  0  0  0  0
   11.0399   -1.3346    0.0000 N   0  0  0  0  0  0  0  0  0  0  0  0
   11.0339   -2.1596    0.0000 C   0  0  0  0  0  0  0  0  0  0  0  0
   11.7410   -2.5781    0.0000 N   0  0  0  0  0  0  0  0  0  0  0  0
   11.7329   -3.4067    0.0000 N   0  0  0  0  0  0  0  0  0  0  0  0
   11.0126   -3.8089    0.0000 C   0  0  0  0  0  0  0  0  0  0  0  0
   11.0066   -4.6338    0.0000 O   0  0  0  0  0  0  0  0  0  0  0  0
   10.3055   -3.3903    0.0000 C   0  0  0  0  0  0  0  0  0  0  0  0
    9.5852   -3.7925    0.0000 C   0  0  0  0  0  0  0  0  0  0  0  0
    8.8781   -3.3740    0.0000 C   0  0  0  0  0  0  0  0  0  0  0  0
    8.8841   -2.5490    0.0000 C   0  0  0  0  0  0  0  0  0  0  0  0
    9.6043   -2.1469    0.0000 C   0  0  0  0  0  0  0  0  0  0  0  0
   10.3115   -2.5654    0.0000 C   0  0  0  0  0  0  0  0  0  0  0  0
   12.4400   -3.8252    0.0000 C   0  0  0  0  0  0  0  0  0  0  0  0
   13.1624   -3.4194    0.0000 C   0  0  0  0  0  0  0  0  0  0  0  0
   13.8695   -3.8379    0.0000 C   0  0  0  0  0  0  0  0  0  0  0  0
   13.8614   -4.6664    0.0000 C   0  0  0  0  0  0  0  0  0  0  0  0
   14.5684   -5.0849    0.0000 Cl  0  0  0  0  0  0  0  0  0  0  0  0
   13.1411   -5.0687    0.0000 C   0  0  0  0  0  0  0  0  0  0  0  0
   12.4339   -4.6502    0.0000 C   0  0  0  0  0  0  0  0  0  0  0  0
    9.5741   -1.2421    0.0000 N   0  0  0  0  0  0  0  0  0  0  0  0
    9.0319   -0.6236    0.0000 N   0  0  0  0  0  0  0  0  0  0  0  0
  1  2  1  0  0  0  0 
  2  3  2  0  0  0  0 
  3  4  1  0  0  0  0 
  4  5  1  0  0  0  0 
  5  6  1  0  0  0  0 
  6  7  2  0  0  0  0 
  7  8  1  0  0  0  0 
  8  9  1  0  0  0  0 
  9 10  2  0  0  0  0 
  9 11  1  0  0  0  0 
 11 12  1  0  0  0  0 
 12 13  2  0  0  0  0 
 13 14  1  0  0  0  0 
 14 15  2  0  0  0  0 
 15 16  1  0  0  0  0 
  6 16  1  0  0  0  0 
 11 16  2  0  0  0  0 
  8 17  1  0  0  0  0 
 17 18  2  0  0  0  0 
 18 19  1  0  0  0  0 
 19 20  2  0  0  0  0 
 20 21  1  0  0  0  0 
 20 22  1  0  0  0  0 
 22 23  2  0  0  0  0 
 17 23  1  0  0  0  0 
  4 24  2  0  0  0  0 
 24 25  1  0  0  0  0 
  2 25  1  0  0  0  0 
M  END

>  <pIC50>
5.92591531097

$$$$

  CDK    9/16/09,10:7

 22 24  0  0  0  0  0  0  0  0999 V2000
    1.4991   -6.8385    0.0000 N   0  0  0  0  0  0  0  0  0  0  0  0
    1.4991   -7.6635    0.0000 C   0  0  0  0  0  0  0  0  0  0  0  0
    0.7832   -8.0760    0.0000 C   0  0  0  0  0  0  0  0  0  0  0  0
    0.7832   -8.9010    0.0000 C   0  0  0  0  0  0  0  0  0  0  0  0
    0.0673   -9.3135    0.0000 N   0  0  0  0  0  0  0  0  0  0  0  0
    0.0673  -10.1385    0.0000 C   0  0  0  0  0  0  0  0  0  0  0  0
    0.7832  -10.5510    0.0000 N   0  0  0  0  0  0  0  0  0  0  0  0
    0.7832  -11.3760    0.0000 C   0  0  0  0  0  0  0  0  0  0  0  0
    0.0673  -11.7885    0.0000 C   0  0  0  0  0  0  0  0  0  0  0  0
   -0.6444  -11.3760    0.0000 C   0  0  0  0  0  0  0  0  0  0  0  0
   -1.3602  -11.7885    0.0000 N   0  0  0  0  0  0  0  0  0  0  0  0
   -2.0719  -11.3760    0.0000 C   0  0  0  0  0  0  0  0  0  0  0  0
   -2.0719  -10.5510    0.0000 C   0  0  0  0  0  0  0  0  0  0  0  0
   -1.3602  -10.1385    0.0000 C   0  0  0  0  0  0  0  0  0  0  0  0
   -0.6444  -10.5510    0.0000 C   0  0  0  0  0  0  0  0  0  0  0  0
    1.4991  -11.7885    0.0000 C   0  0  0  0  0  0  0  0  0  0  0  0
    2.2149  -11.3760    0.0000 C   0  0  0  0  0  0  0  0  0  0  0  0
    2.9266  -11.7885    0.0000 C   0  0  0  0  0  0  0  0  0  0  0  0
    2.9266  -12.6135    0.0000 C   0  0  0  0  0  0  0  0  0  0  0  0
    3.6425  -13.0260    0.0000 Cl  0  0  0  0  0  0  0  0  0  0  0  0
    2.2149  -13.0260    0.0000 C   0  0  0  0  0  0  0  0  0  0  0  0
    1.4991  -12.6135    0.0000 C   0  0  0  0  0  0  0  0  0  0  0  0
  1  2  1  0  0  0  0 
  2  3  1  0  0  0  0 
  3  4  1  0  0  0  0 
  4  5  1  0  0  0  0 
  5  6  1  0  0  0  0 
  6  7  2  0  0  0  0 
  7  8  1  0  0  0  0 
  8  9  2  0  0  0  0 
  9 10  1  0  0  0  0 
 10 11  1  0  0  0  0 
 11 12  2  0  0  0  0 
 12 13  1  0  0  0  0 
 13 14  2  0  0  0  0 
 14 15  1  0  0  0  0 
  6 15  1  0  0  0  0 
 10 15  2  0  0  0  0 
  8 16  1  0  0  0  0 
 16 17  2  0  0  0  0 
 17 18  1  0  0  0  0 
 18 19  2  0  0  0  0 
 19 20  1  0  0  0  0 
 19 21  1  0  0  0  0 
 21 22  2  0  0  0  0 
 16 22  1  0  0  0  0 
M  END

>  <pIC50>
5.92081875395

$$$$

  CDK    9/16/09,10:7

 24 26  0  0  0  0  0  0  0  0999 V2000
   11.3796   -7.9453    0.0000 C   0  0  0  0  0  0  0  0  0  0  0  0
   10.6626   -8.3533    0.0000 O   0  0  0  0  0  0  0  0  0  0  0  0
    9.9500   -7.9352    0.0000 C   0  0  0  0  0  0  0  0  0  0  0  0
    9.2330   -8.3433    0.0000 C   0  0  0  0  0  0  0  0  0  0  0  0
    9.2286   -9.1695    0.0000 C   0  0  0  0  0  0  0  0  0  0  0  0
    8.5116   -9.5776    0.0000 C   0  0  0  0  0  0  0  0  0  0  0  0
    7.7990   -9.1595    0.0000 C   0  0  0  0  0  0  0  0  0  0  0  0
    7.0820   -9.5676    0.0000 C   0  0  0  0  0  0  0  0  0  0  0  0
    6.3715   -9.1531    0.0000 N   0  0  0  0  0  0  0  0  0  0  0  0
    6.3759   -8.3269    0.0000 N   0  0  0  0  0  0  0  0  0  0  0  0
    5.6633   -7.9088    0.0000 C   0  0  0  0  0  0  0  0  0  0  0  0
    5.6677   -7.0826    0.0000 C   0  0  0  0  0  0  0  0  0  0  0  0
    4.9463   -8.3168    0.0000 C   0  0  0  0  0  0  0  0  0  0  0  0
    7.0929   -7.9188    0.0000 C   0  0  0  0  0  0  0  0  0  0  0  0
    7.0973   -7.0926    0.0000 O   0  0  0  0  0  0  0  0  0  0  0  0
    7.8055   -8.3369    0.0000 C   0  0  0  0  0  0  0  0  0  0  0  0
    8.5225   -7.9288    0.0000 C   0  0  0  0  0  0  0  0  0  0  0  0
    7.0776  -10.3938    0.0000 N   0  0  0  0  0  0  0  0  0  0  0  0
    6.3606  -10.8018    0.0000 C   0  0  0  0  0  0  0  0  0  0  0  0
    6.2685  -11.6199    0.0000 C   0  0  0  0  0  0  0  0  0  0  0  0
    5.4614  -11.7882    0.0000 C   0  0  0  0  0  0  0  0  0  0  0  0
    5.1229  -12.5387    0.0000 C   0  0  0  0  0  0  0  0  0  0  0  0
    5.0533  -11.0712    0.0000 N   0  0  0  0  0  0  0  0  0  0  0  0
    5.6081  -10.4597    0.0000 N   0  0  0  0  0  0  0  0  0  0  0  0
  1  2  1  0  0  0  0 
  2  3  1  0  0  0  0 
  3  4  1  0  0  0  0 
  4  5  1  0  0  0  0 
  5  6  2  0  0  0  0 
  6  7  1  0  0  0  0 
  7  8  1  0  0  0  0 
  8  9  2  0  0  0  0 
  9 10  1  0  0  0  0 
 10 11  1  0  0  0  0 
 11 12  1  0  0  0  0 
 11 13  1  0  0  0  0 
 10 14  1  0  0  0  0 
 14 15  2  0  0  0  0 
 14 16  1  0  0  0  0 
  7 16  2  0  0  0  0 
 16 17  1  0  0  0  0 
  4 17  2  0  0  0  0 
  8 18  1  0  0  0  0 
 18 19  1  0  0  0  0 
 19 20  1  0  0  0  0 
 20 21  2  0  0  0  0 
 21 22  1  0  0  0  0 
 21 23  1  0  0  0  0 
 23 24  1  0  0  0  0 
 19 24  2  0  0  0  0 
M  END

>  <pIC50>
5.90308998699

$$$$

  CDK    9/16/09,10:7

 28 30  0  0  0  0  0  0  0  0999 V2000
   20.9998   -6.7467    0.0000 O   0  0  0  0  0  0  0  0  0  0  0  0
   20.9998   -7.5683    0.0000 C   0  0  0  0  0  0  0  0  0  0  0  0
   21.7169   -7.9833    0.0000 C   0  0  0  0  0  0  0  0  0  0  0  0
   21.7169   -8.8049    0.0000 C   0  0  0  0  0  0  0  0  0  0  0  0
   20.9998   -9.2199    0.0000 C   0  0  0  0  0  0  0  0  0  0  0  0
   20.9998  -10.0416    0.0000 O   0  0  0  0  0  0  0  0  0  0  0  0
   20.2868   -8.8049    0.0000 C   0  0  0  0  0  0  0  0  0  0  0  0
   19.5739   -9.2199    0.0000 C   0  0  0  0  0  0  0  0  0  0  0  0
   18.8609   -8.8049    0.0000 N   0  0  0  0  0  0  0  0  0  0  0  0
   18.1438   -9.2199    0.0000 C   0  0  0  0  0  0  0  0  0  0  0  0
   18.1438  -10.0416    0.0000 C   0  0  0  0  0  0  0  0  0  0  0  0
   17.4308  -10.4566    0.0000 C   0  0  0  0  0  0  0  0  0  0  0  0
   16.7178  -10.0416    0.0000 C   0  0  0  0  0  0  0  0  0  0  0  0
   16.0049  -10.4566    0.0000 O   0  0  0  0  0  0  0  0  0  0  0  0
   16.7178   -9.2199    0.0000 C   0  0  0  0  0  0  0  0  0  0  0  0
   17.4308   -8.8049    0.0000 C   0  0  0  0  0  0  0  0  0  0  0  0
   16.0049   -8.8049    0.0000 C   0  0  0  0  0  0  0  0  0  0  0  0
   16.0049   -7.9833    0.0000 O   0  0  0  0  0  0  0  0  0  0  0  0
   15.2918   -9.2199    0.0000 N   0  0  0  0  0  0  0  0  0  0  0  0
   14.5747   -8.8049    0.0000 C   0  0  0  0  0  0  0  0  0  0  0  0
   13.8617   -9.2199    0.0000 C   0  0  0  0  0  0  0  0  0  0  0  0
   13.1488   -8.8049    0.0000 N   0  0  0  0  0  0  0  0  0  0  0  0
   12.4358   -9.2199    0.0000 C   0  0  0  0  0  0  0  0  0  0  0  0
   11.7187   -8.8049    0.0000 C   0  0  0  0  0  0  0  0  0  0  0  0
   11.7187   -7.9833    0.0000 O   0  0  0  0  0  0  0  0  0  0  0  0
   12.4358   -7.5683    0.0000 C   0  0  0  0  0  0  0  0  0  0  0  0
   13.1488   -7.9833    0.0000 C   0  0  0  0  0  0  0  0  0  0  0  0
   20.2868   -7.9833    0.0000 C   0  0  0  0  0  0  0  0  0  0  0  0
  1  2  1  0  0  0  0 
  2  3  1  0  0  0  0 
  3  4  2  0  0  0  0 
  4  5  1  0  0  0  0 
  5  6  1  0  0  0  0 
  5  7  2  0  0  0  0 
  7  8  1  0  0  0  0 
  8  9  1  0  0  0  0 
  9 10  1  0  0  0  0 
 10 11  2  0  0  0  0 
 11 12  1  0  0  0  0 
 12 13  2  0  0  0  0 
 13 14  1  0  0  0  0 
 13 15  1  0  0  0  0 
 15 16  2  0  0  0  0 
 10 16  1  0  0  0  0 
 15 17  1  0  0  0  0 
 17 18  2  0  0  0  0 
 17 19  1  0  0  0  0 
 19 20  1  0  0  0  0 
 20 21  1  0  0  0  0 
 21 22  1  0  0  0  0 
 22 23  1  0  0  0  0 
 23 24  1  0  0  0  0 
 24 25  1  0  0  0  0 
 25 26  1  0  0  0  0 
 26 27  1  0  0  0  0 
 22 27  1  0  0  0  0 
  7 28  1  0  0  0  0 
  2 28  2  0  0  0  0 
M  END

>  <pIC50>
5.82390874094

$$$$

  CDK    9/16/09,10:7

 23 25  0  0  0  0  0  0  0  0999 V2000
    4.3176  -15.9642    0.0000 C   0  0  0  0  0  0  0  0  0  0  0  0
    3.6163  -15.5274    0.0000 S   0  0  0  0  0  0  0  0  0  0  0  0
    2.8888  -15.9164    0.0000 C   0  0  0  0  0  0  0  0  0  0  0  0
    2.8626  -16.7422    0.0000 C   0  0  0  0  0  0  0  0  0  0  0  0
    2.1351  -17.1313    0.0000 C   0  0  0  0  0  0  0  0  0  0  0  0
    1.4338  -16.6945    0.0000 C   0  0  0  0  0  0  0  0  0  0  0  0
    0.7062  -17.0836    0.0000 C   0  0  0  0  0  0  0  0  0  0  0  0
    0.0069  -16.6505    0.0000 N   0  0  0  0  0  0  0  0  0  0  0  0
    0.0331  -15.8247    0.0000 N   0  0  0  0  0  0  0  0  0  0  0  0
   -0.6683  -15.3879    0.0000 C   0  0  0  0  0  0  0  0  0  0  0  0
   -0.6421  -14.5621    0.0000 C   0  0  0  0  0  0  0  0  0  0  0  0
   -1.3958  -15.7770    0.0000 C   0  0  0  0  0  0  0  0  0  0  0  0
    0.7606  -15.4357    0.0000 C   0  0  0  0  0  0  0  0  0  0  0  0
    0.7867  -14.6099    0.0000 O   0  0  0  0  0  0  0  0  0  0  0  0
    1.4619  -15.8724    0.0000 C   0  0  0  0  0  0  0  0  0  0  0  0
    2.1894  -15.4834    0.0000 C   0  0  0  0  0  0  0  0  0  0  0  0
    0.6801  -17.9094    0.0000 N   0  0  0  0  0  0  0  0  0  0  0  0
   -0.0474  -18.2984    0.0000 C   0  0  0  0  0  0  0  0  0  0  0  0
   -0.1611  -19.1138    0.0000 C   0  0  0  0  0  0  0  0  0  0  0  0
   -0.9723  -19.2608    0.0000 C   0  0  0  0  0  0  0  0  0  0  0  0
   -1.3305  -20.0020    0.0000 C   0  0  0  0  0  0  0  0  0  0  0  0
   -1.3614  -18.5332    0.0000 N   0  0  0  0  0  0  0  0  0  0  0  0
   -0.7907  -17.9365    0.0000 N   0  0  0  0  0  0  0  0  0  0  0  0
  1  2  1  0  0  0  0 
  2  3  1  0  0  0  0 
  3  4  1  0  0  0  0 
  4  5  2  0  0  0  0 
  5  6  1  0  0  0  0 
  6  7  1  0  0  0  0 
  7  8  2  0  0  0  0 
  8  9  1  0  0  0  0 
  9 10  1  0  0  0  0 
 10 11  1  0  0  0  0 
 10 12  1  0  0  0  0 
  9 13  1  0  0  0  0 
 13 14  2  0  0  0  0 
 13 15  1  0  0  0  0 
  6 15  2  0  0  0  0 
 15 16  1  0  0  0  0 
  3 16  2  0  0  0  0 
  7 17  1  0  0  0  0 
 17 18  1  0  0  0  0 
 18 19  1  0  0  0  0 
 19 20  2  0  0  0  0 
 20 21  1  0  0  0  0 
 20 22  1  0  0  0  0 
 22 23  1  0  0  0  0 
 18 23  2  0  0  0  0 
M  END

>  <pIC50>
5.80410034759

$$$$

  CDK    9/16/09,10:7

 26 29  0  0  0  0  0  0  0  0999 V2000
    8.4368  -11.9599    0.0000 N   0  0  0  0  0  0  0  0  0  0  0  0
    8.4368  -12.7849    0.0000 C   0  0  0  0  0  0  0  0  0  0  0  0
    7.7209  -13.1974    0.0000 C   0  0  0  0  0  0  0  0  0  0  0  0
    7.7209  -14.0224    0.0000 C   0  0  0  0  0  0  0  0  0  0  0  0
    7.0051  -14.4349    0.0000 N   0  0  0  0  0  0  0  0  0  0  0  0
    7.0051  -15.2599    0.0000 C   0  0  0  0  0  0  0  0  0  0  0  0
    7.7209  -15.6724    0.0000 N   0  0  0  0  0  0  0  0  0  0  0  0
    7.7209  -16.4974    0.0000 C   0  0  0  0  0  0  0  0  0  0  0  0
    7.0051  -16.9099    0.0000 C   0  0  0  0  0  0  0  0  0  0  0  0
    6.2892  -16.4974    0.0000 C   0  0  0  0  0  0  0  0  0  0  0  0
    5.5775  -16.9099    0.0000 N   0  0  0  0  0  0  0  0  0  0  0  0
    4.8616  -16.4974    0.0000 C   0  0  0  0  0  0  0  0  0  0  0  0
    4.8616  -15.6724    0.0000 C   0  0  0  0  0  0  0  0  0  0  0  0
    5.5775  -15.2599    0.0000 C   0  0  0  0  0  0  0  0  0  0  0  0
    6.2892  -15.6724    0.0000 C   0  0  0  0  0  0  0  0  0  0  0  0
    8.4368  -16.9099    0.0000 C   0  0  0  0  0  0  0  0  0  0  0  0
    9.1485  -16.4974    0.0000 C   0  0  0  0  0  0  0  0  0  0  0  0
    9.8644  -16.9099    0.0000 C   0  0  0  0  0  0  0  0  0  0  0  0
    9.8644  -17.7349    0.0000 C   0  0  0  0  0  0  0  0  0  0  0  0
    9.1485  -18.1474    0.0000 C   0  0  0  0  0  0  0  0  0  0  0  0
    8.4368  -17.7349    0.0000 C   0  0  0  0  0  0  0  0  0  0  0  0
   10.5761  -18.1474    0.0000 C   0  0  0  0  0  0  0  0  0  0  0  0
   11.3305  -17.8140    0.0000 C   0  0  0  0  0  0  0  0  0  0  0  0
   11.8836  -18.4263    0.0000 C   0  0  0  0  0  0  0  0  0  0  0  0
   11.4711  -19.1421    0.0000 S   0  0  0  0  0  0  0  0  0  0  0  0
   10.6651  -18.9698    0.0000 C   0  0  0  0  0  0  0  0  0  0  0  0
  1  2  1  0  0  0  0 
  2  3  1  0  0  0  0 
  3  4  1  0  0  0  0 
  4  5  1  0  0  0  0 
  5  6  1  0  0  0  0 
  6  7  2  0  0  0  0 
  7  8  1  0  0  0  0 
  8  9  2  0  0  0  0 
  9 10  1  0  0  0  0 
 10 11  1  0  0  0  0 
 11 12  2  0  0  0  0 
 12 13  1  0  0  0  0 
 13 14  2  0  0  0  0 
 14 15  1  0  0  0  0 
  6 15  1  0  0  0  0 
 10 15  2  0  0  0  0 
  8 16  1  0  0  0  0 
 16 17  2  0  0  0  0 
 17 18  1  0  0  0  0 
 18 19  2  0  0  0  0 
 19 20  1  0  0  0  0 
 20 21  2  0  0  0  0 
 16 21  1  0  0  0  0 
 19 22  1  0  0  0  0 
 22 23  1  0  0  0  0 
 23 24  2  0  0  0  0 
 24 25  1  0  0  0  0 
 25 26  1  0  0  0  0 
 22 26  2  0  0  0  0 
M  END

>  <pIC50>
5.79588001734

$$$$

  CDK    9/16/09,10:7

 20 22  0  0  0  0  0  0  0  0999 V2000
   18.2057  -14.5622    0.0000 C   0  0  0  0  0  0  0  0  0  0  0  0
   17.4950  -14.9741    0.0000 C   0  0  0  0  0  0  0  0  0  0  0  0
   17.4950  -15.7980    0.0000 C   0  0  0  0  0  0  0  0  0  0  0  0
   16.7801  -16.2099    0.0000 C   0  0  0  0  0  0  0  0  0  0  0  0
   16.0652  -15.7980    0.0000 C   0  0  0  0  0  0  0  0  0  0  0  0
   15.3504  -16.2099    0.0000 C   0  0  0  0  0  0  0  0  0  0  0  0
   16.0652  -14.9741    0.0000 C   0  0  0  0  0  0  0  0  0  0  0  0
   15.3504  -14.5622    0.0000 N   0  0  0  0  0  0  0  0  0  0  0  0
   14.6397  -14.9741    0.0000 C   0  0  0  0  0  0  0  0  0  0  0  0
   14.6397  -15.7980    0.0000 N   0  0  0  0  0  0  0  0  0  0  0  0
   13.9248  -16.2099    0.0000 C   0  0  0  0  0  0  0  0  0  0  0  0
   13.2141  -15.7980    0.0000 C   0  0  0  0  0  0  0  0  0  0  0  0
   13.2141  -14.9741    0.0000 C   0  0  0  0  0  0  0  0  0  0  0  0
   13.9248  -14.5622    0.0000 N   0  0  0  0  0  0  0  0  0  0  0  0
   12.4992  -14.5622    0.0000 C   0  0  0  0  0  0  0  0  0  0  0  0
   11.7458  -14.8951    0.0000 N   0  0  0  0  0  0  0  0  0  0  0  0
   11.1935  -14.2838    0.0000 C   0  0  0  0  0  0  0  0  0  0  0  0
   11.6054  -13.5689    0.0000 C   0  0  0  0  0  0  0  0  0  0  0  0
   12.4145  -13.7410    0.0000 S   0  0  0  0  0  0  0  0  0  0  0  0
   16.7801  -14.5622    0.0000 C   0  0  0  0  0  0  0  0  0  0  0  0
  1  2  1  0  0  0  0 
  2  3  2  0  0  0  0 
  3  4  1  0  0  0  0 
  4  5  2  0  0  0  0 
  5  6  1  0  0  0  0 
  5  7  1  0  0  0  0 
  7  8  1  0  0  0  0 
  8  9  1  0  0  0  0 
  9 10  2  0  0  0  0 
 10 11  1  0  0  0  0 
 11 12  2  0  0  0  0 
 12 13  1  0  0  0  0 
 13 14  2  0  0  0  0 
  9 14  1  0  0  0  0 
 13 15  1  0  0  0  0 
 15 16  2  0  0  0  0 
 16 17  1  0  0  0  0 
 17 18  2  0  0  0  0 
 18 19  1  0  0  0  0 
 15 19  1  0  0  0  0 
  7 20  2  0  0  0  0 
  2 20  1  0  0  0  0 
M  END

>  <pIC50>
5.74064507269

$$$$

  CDK    9/16/09,10:7

 27 29  0  0  0  0  0  0  0  0999 V2000
   -2.6860  -24.0467    0.0000 C   0  0  0  0  0  0  0  0  0  0  0  0
   -2.6860  -23.2192    0.0000 C   0  0  0  0  0  0  0  0  0  0  0  0
   -3.4005  -22.8075    0.0000 C   0  0  0  0  0  0  0  0  0  0  0  0
   -1.9674  -22.8075    0.0000 N   0  0  0  0  0  0  0  0  0  0  0  0
   -1.9674  -21.9800    0.0000 N   0  0  0  0  0  0  0  0  0  0  0  0
   -1.2531  -21.5684    0.0000 C   0  0  0  0  0  0  0  0  0  0  0  0
   -1.2531  -20.7408    0.0000 N   0  0  0  0  0  0  0  0  0  0  0  0
   -1.9674  -20.3292    0.0000 C   0  0  0  0  0  0  0  0  0  0  0  0
   -2.7245  -20.6661    0.0000 C   0  0  0  0  0  0  0  0  0  0  0  0
   -3.2765  -20.0509    0.0000 C   0  0  0  0  0  0  0  0  0  0  0  0
   -4.0972  -20.1356    0.0000 C   0  0  0  0  0  0  0  0  0  0  0  0
   -2.8648  -19.3365    0.0000 N   0  0  0  0  0  0  0  0  0  0  0  0
   -2.0563  -19.5085    0.0000 N   0  0  0  0  0  0  0  0  0  0  0  0
   -0.5386  -21.9800    0.0000 C   0  0  0  0  0  0  0  0  0  0  0  0
    0.1758  -21.5684    0.0000 C   0  0  0  0  0  0  0  0  0  0  0  0
    0.8902  -21.9800    0.0000 C   0  0  0  0  0  0  0  0  0  0  0  0
    0.8902  -22.8075    0.0000 C   0  0  0  0  0  0  0  0  0  0  0  0
    1.6089  -23.2192    0.0000 O   0  0  0  0  0  0  0  0  0  0  0  0
    2.3232  -22.8075    0.0000 C   0  0  0  0  0  0  0  0  0  0  0  0
    2.3232  -21.9800    0.0000 C   0  0  0  0  0  0  0  0  0  0  0  0
    3.0377  -21.5684    0.0000 N   0  0  0  0  0  0  0  0  0  0  0  0
    3.0377  -20.7408    0.0000 C   0  0  0  0  0  0  0  0  0  0  0  0
    3.7521  -21.9800    0.0000 C   0  0  0  0  0  0  0  0  0  0  0  0
    0.1758  -23.2192    0.0000 C   0  0  0  0  0  0  0  0  0  0  0  0
   -0.5386  -22.8075    0.0000 C   0  0  0  0  0  0  0  0  0  0  0  0
   -1.2531  -23.2192    0.0000 C   0  0  0  0  0  0  0  0  0  0  0  0
   -1.2531  -24.0467    0.0000 O   0  0  0  0  0  0  0  0  0  0  0  0
  1  2  1  0  0  0  0 
  2  3  1  0  0  0  0 
  2  4  1  0  0  0  0 
  4  5  1  0  0  0  0 
  5  6  2  0  0  0  0 
  6  7  1  0  0  0  0 
  7  8  1  0  0  0  0 
  8  9  1  0  0  0  0 
  9 10  2  0  0  0  0 
 10 11  1  0  0  0  0 
 10 12  1  0  0  0  0 
 12 13  1  0  0  0  0 
  8 13  2  0  0  0  0 
  6 14  1  0  0  0  0 
 14 15  1  0  0  0  0 
 15 16  2  0  0  0  0 
 16 17  1  0  0  0  0 
 17 18  1  0  0  0  0 
 18 19  1  0  0  0  0 
 19 20  1  0  0  0  0 
 20 21  1  0  0  0  0 
 21 22  1  0  0  0  0 
 21 23  1  0  0  0  0 
 17 24  2  0  0  0  0 
 24 25  1  0  0  0  0 
 14 25  2  0  0  0  0 
 25 26  1  0  0  0  0 
  4 26  1  0  0  0  0 
 26 27  2  0  0  0  0 
M  END

>  <pIC50>
5.73048705578

$$$$

  CDK    9/16/09,10:7

 29 32  0  0  0  0  0  0  0  0999 V2000
    6.0563  -22.7579    0.0000 O   0  0  0  0  0  0  0  0  0  0  0  0
    5.3434  -22.3429    0.0000 N   0  0  0  0  0  0  0  0  0  0  0  0
    4.6303  -22.7579    0.0000 O   0  0  0  0  0  0  0  0  0  0  0  0
    5.3434  -21.5212    0.0000 C   0  0  0  0  0  0  0  0  0  0  0  0
    4.6303  -21.1062    0.0000 C   0  0  0  0  0  0  0  0  0  0  0  0
    4.6303  -20.2844    0.0000 C   0  0  0  0  0  0  0  0  0  0  0  0
    5.3434  -19.8694    0.0000 C   0  0  0  0  0  0  0  0  0  0  0  0
    6.0563  -20.2844    0.0000 C   0  0  0  0  0  0  0  0  0  0  0  0
    6.0563  -21.1062    0.0000 C   0  0  0  0  0  0  0  0  0  0  0  0
    6.7736  -21.5212    0.0000 C   0  0  0  0  0  0  0  0  0  0  0  0
    7.4865  -21.1062    0.0000 O   0  0  0  0  0  0  0  0  0  0  0  0
    8.1996  -21.5212    0.0000 C   0  0  0  0  0  0  0  0  0  0  0  0
    8.9126  -21.1062    0.0000 C   0  0  0  0  0  0  0  0  0  0  0  0
    9.6298  -21.5212    0.0000 C   0  0  0  0  0  0  0  0  0  0  0  0
    9.6298  -22.3429    0.0000 C   0  0  0  0  0  0  0  0  0  0  0  0
   10.3427  -22.7579    0.0000 N   0  0  0  0  0  0  0  0  0  0  0  0
   11.0558  -22.3429    0.0000 C   0  0  0  0  0  0  0  0  0  0  0  0
   11.0558  -21.5212    0.0000 N   0  0  0  0  0  0  0  0  0  0  0  0
   11.7688  -21.1062    0.0000 C   0  0  0  0  0  0  0  0  0  0  0  0
   12.4860  -21.5212    0.0000 C   0  0  0  0  0  0  0  0  0  0  0  0
   12.4860  -22.3429    0.0000 C   0  0  0  0  0  0  0  0  0  0  0  0
   11.7688  -22.7579    0.0000 N   0  0  0  0  0  0  0  0  0  0  0  0
   13.1990  -22.7579    0.0000 C   0  0  0  0  0  0  0  0  0  0  0  0
   13.9504  -22.4217    0.0000 N   0  0  0  0  0  0  0  0  0  0  0  0
   14.5013  -23.0357    0.0000 C   0  0  0  0  0  0  0  0  0  0  0  0
   14.0905  -23.7487    0.0000 C   0  0  0  0  0  0  0  0  0  0  0  0
   13.2835  -23.5770    0.0000 S   0  0  0  0  0  0  0  0  0  0  0  0
    8.9126  -22.7579    0.0000 C   0  0  0  0  0  0  0  0  0  0  0  0
    8.1996  -22.3429    0.0000 C   0  0  0  0  0  0  0  0  0  0  0  0
  1  2  1  0  0  0  0 
  2  3  2  0  0  0  0 
  2  4  1  0  0  0  0 
  4  5  2  0  0  0  0 
  5  6  1  0  0  0  0 
  6  7  2  0  0  0  0 
  7  8  1  0  0  0  0 
  8  9  2  0  0  0  0 
  4  9  1  0  0  0  0 
  9 10  1  0  0  0  0 
 10 11  1  0  0  0  0 
 11 12  1  0  0  0  0 
 12 13  2  0  0  0  0 
 13 14  1  0  0  0  0 
 14 15  2  0  0  0  0 
 15 16  1  0  0  0  0 
 16 17  1  0  0  0  0 
 17 18  2  0  0  0  0 
 18 19  1  0  0  0  0 
 19 20  2  0  0  0  0 
 20 21  1  0  0  0  0 
 21 22  2  0  0  0  0 
 17 22  1  0  0  0  0 
 21 23  1  0  0  0  0 
 23 24  2  0  0  0  0 
 24 25  1  0  0  0  0 
 25 26  2  0  0  0  0 
 26 27  1  0  0  0  0 
 23 27  1  0  0  0  0 
 15 28  1  0  0  0  0 
 28 29  2  0  0  0  0 
 12 29  1  0  0  0  0 
M  CHG  1   1  -1
M  CHG  1   2   1
M  END

>  <pIC50>
5.69897000434

$$$$

  CDK    9/16/09,10:7

 30 33  0  0  0  0  0  0  0  0999 V2000
   12.1944  -19.8589    0.0000 C   0  0  0  0  0  0  0  0  0  0  0  0
   12.9106  -20.2683    0.0000 O   0  0  0  0  0  0  0  0  0  0  0  0
   13.6240  -19.8516    0.0000 C   0  0  0  0  0  0  0  0  0  0  0  0
   13.6191  -19.0290    0.0000 O   0  0  0  0  0  0  0  0  0  0  0  0
   14.3402  -20.2611    0.0000 C   0  0  0  0  0  0  0  0  0  0  0  0
   15.0515  -19.8480    0.0000 C   0  0  0  0  0  0  0  0  0  0  0  0
   15.7677  -20.2575    0.0000 C   0  0  0  0  0  0  0  0  0  0  0  0
   15.7726  -21.0801    0.0000 C   0  0  0  0  0  0  0  0  0  0  0  0
   16.4888  -21.4896    0.0000 C   0  0  0  0  0  0  0  0  0  0  0  0
   17.2001  -21.0765    0.0000 O   0  0  0  0  0  0  0  0  0  0  0  0
   17.9163  -21.4860    0.0000 C   0  0  0  0  0  0  0  0  0  0  0  0
   18.6298  -21.0693    0.0000 C   0  0  0  0  0  0  0  0  0  0  0  0
   19.3460  -21.4787    0.0000 C   0  0  0  0  0  0  0  0  0  0  0  0
   19.3488  -22.3049    0.0000 C   0  0  0  0  0  0  0  0  0  0  0  0
   20.0650  -22.7144    0.0000 N   0  0  0  0  0  0  0  0  0  0  0  0
   20.7784  -22.2977    0.0000 C   0  0  0  0  0  0  0  0  0  0  0  0
   20.7756  -21.4715    0.0000 N   0  0  0  0  0  0  0  0  0  0  0  0
   21.4890  -21.0548    0.0000 C   0  0  0  0  0  0  0  0  0  0  0  0
   22.2052  -21.4643    0.0000 C   0  0  0  0  0  0  0  0  0  0  0  0
   22.2080  -22.2905    0.0000 C   0  0  0  0  0  0  0  0  0  0  0  0
   21.4946  -22.7072    0.0000 N   0  0  0  0  0  0  0  0  0  0  0  0
   22.9242  -22.7000    0.0000 C   0  0  0  0  0  0  0  0  0  0  0  0
   23.6717  -22.3608    0.0000 N   0  0  0  0  0  0  0  0  0  0  0  0
   24.2273  -22.9699    0.0000 C   0  0  0  0  0  0  0  0  0  0  0  0
   23.8178  -23.6861    0.0000 C   0  0  0  0  0  0  0  0  0  0  0  0
   23.0090  -23.5198    0.0000 S   0  0  0  0  0  0  0  0  0  0  0  0
   18.6374  -22.7180    0.0000 C   0  0  0  0  0  0  0  0  0  0  0  0
   17.9212  -22.3086    0.0000 C   0  0  0  0  0  0  0  0  0  0  0  0
   15.0592  -21.4968    0.0000 C   0  0  0  0  0  0  0  0  0  0  0  0
   14.3430  -21.0873    0.0000 C   0  0  0  0  0  0  0  0  0  0  0  0
  1  2  1  0  0  0  0 
  2  3  1  0  0  0  0 
  3  4  2  0  0  0  0 
  3  5  1  0  0  0  0 
  5  6  1  0  0  0  0 
  6  7  2  0  0  0  0 
  7  8  1  0  0  0  0 
  8  9  1  0  0  0  0 
  9 10  1  0  0  0  0 
 10 11  1  0  0  0  0 
 11 12  1  0  0  0  0 
 12 13  2  0  0  0  0 
 13 14  1  0  0  0  0 
 14 15  1  0  0  0  0 
 15 16  1  0  0  0  0 
 16 17  2  0  0  0  0 
 17 18  1  0  0  0  0 
 18 19  2  0  0  0  0 
 19 20  1  0  0  0  0 
 20 21  2  0  0  0  0 
 16 21  1  0  0  0  0 
 20 22  1  0  0  0  0 
 22 23  2  0  0  0  0 
 23 24  1  0  0  0  0 
 24 25  2  0  0  0  0 
 25 26  1  0  0  0  0 
 22 26  1  0  0  0  0 
 14 27  2  0  0  0  0 
 27 28  1  0  0  0  0 
 11 28  2  0  0  0  0 
  8 29  2  0  0  0  0 
 29 30  1  0  0  0  0 
  5 30  2  0  0  0  0 
M  END

>  <pIC50>
5.69897000434

$$$$

  CDK    9/16/09,10:7

 26 29  0  0  0  0  0  0  0  0999 V2000
    5.9441   -3.1381    0.0000 C   0  0  0  0  0  0  0  0  0  0  0  0
    5.2423   -3.5732    0.0000 O   0  0  0  0  0  0  0  0  0  0  0  0
    4.5166   -3.1809    0.0000 C   0  0  0  0  0  0  0  0  0  0  0  0
    3.8168   -3.6123    0.0000 C   0  0  0  0  0  0  0  0  0  0  0  0
    3.0910   -3.2201    0.0000 C   0  0  0  0  0  0  0  0  0  0  0  0
    3.0686   -2.3983    0.0000 C   0  0  0  0  0  0  0  0  0  0  0  0
    2.3428   -2.0060    0.0000 N   0  0  0  0  0  0  0  0  0  0  0  0
    1.6431   -2.4375    0.0000 C   0  0  0  0  0  0  0  0  0  0  0  0
    1.6655   -3.2593    0.0000 N   0  0  0  0  0  0  0  0  0  0  0  0
    0.9657   -3.6907    0.0000 C   0  0  0  0  0  0  0  0  0  0  0  0
    0.2400   -3.2984    0.0000 C   0  0  0  0  0  0  0  0  0  0  0  0
    0.2176   -2.4766    0.0000 C   0  0  0  0  0  0  0  0  0  0  0  0
    0.9173   -2.0452    0.0000 N   0  0  0  0  0  0  0  0  0  0  0  0
   -0.5082   -2.0844    0.0000 C   0  0  0  0  0  0  0  0  0  0  0  0
   -1.2493   -2.4412    0.0000 N   0  0  0  0  0  0  0  0  0  0  0  0
   -1.8181   -1.8429    0.0000 C   0  0  0  0  0  0  0  0  0  0  0  0
   -1.4278   -1.1208    0.0000 C   0  0  0  0  0  0  0  0  0  0  0  0
   -0.6157   -1.2689    0.0000 S   0  0  0  0  0  0  0  0  0  0  0  0
    3.7703   -1.9632    0.0000 C   0  0  0  0  0  0  0  0  0  0  0  0
    4.4962   -2.3554    0.0000 C   0  0  0  0  0  0  0  0  0  0  0  0
    6.6698   -3.5303    0.0000 C   0  0  0  0  0  0  0  0  0  0  0  0
    7.3696   -3.0989    0.0000 C   0  0  0  0  0  0  0  0  0  0  0  0
    8.0953   -3.4912    0.0000 C   0  0  0  0  0  0  0  0  0  0  0  0
    8.1177   -4.3130    0.0000 N   0  0  0  0  0  0  0  0  0  0  0  0
    7.4161   -4.7481    0.0000 C   0  0  0  0  0  0  0  0  0  0  0  0
    6.6902   -4.3558    0.0000 C   0  0  0  0  0  0  0  0  0  0  0  0
  1  2  1  0  0  0  0 
  2  3  1  0  0  0  0 
  3  4  1  0  0  0  0 
  4  5  2  0  0  0  0 
  5  6  1  0  0  0  0 
  6  7  1  0  0  0  0 
  7  8  1  0  0  0  0 
  8  9  2  0  0  0  0 
  9 10  1  0  0  0  0 
 10 11  2  0  0  0  0 
 11 12  1  0  0  0  0 
 12 13  2  0  0  0  0 
  8 13  1  0  0  0  0 
 12 14  1  0  0  0  0 
 14 15  2  0  0  0  0 
 15 16  1  0  0  0  0 
 16 17  2  0  0  0  0 
 17 18  1  0  0  0  0 
 14 18  1  0  0  0  0 
  6 19  2  0  0  0  0 
 19 20  1  0  0  0  0 
  3 20  2  0  0  0  0 
  1 21  1  0  0  0  0 
 21 22  2  0  0  0  0 
 22 23  1  0  0  0  0 
 23 24  2  0  0  0  0 
 24 25  1  0  0  0  0 
 25 26  2  0  0  0  0 
 21 26  1  0  0  0  0 
M  END

>  <pIC50>
5.69897000434

$$$$

  CDK    9/16/09,10:7

 26 29  0  0  0  0  0  0  0  0999 V2000
   16.9832   -3.1716    0.0000 C   0  0  0  0  0  0  0  0  0  0  0  0
   16.2916   -3.6225    0.0000 O   0  0  0  0  0  0  0  0  0  0  0  0
   15.5571   -3.2468    0.0000 C   0  0  0  0  0  0  0  0  0  0  0  0
   14.8673   -3.6940    0.0000 C   0  0  0  0  0  0  0  0  0  0  0  0
   14.1328   -3.3184    0.0000 C   0  0  0  0  0  0  0  0  0  0  0  0
   14.0918   -2.4973    0.0000 C   0  0  0  0  0  0  0  0  0  0  0  0
   13.3572   -2.1216    0.0000 N   0  0  0  0  0  0  0  0  0  0  0  0
   12.6674   -2.5689    0.0000 C   0  0  0  0  0  0  0  0  0  0  0  0
   12.7085   -3.3900    0.0000 N   0  0  0  0  0  0  0  0  0  0  0  0
   12.0188   -3.8372    0.0000 C   0  0  0  0  0  0  0  0  0  0  0  0
   11.2843   -3.4615    0.0000 C   0  0  0  0  0  0  0  0  0  0  0  0
   11.2432   -2.6405    0.0000 C   0  0  0  0  0  0  0  0  0  0  0  0
   11.9329   -2.1933    0.0000 N   0  0  0  0  0  0  0  0  0  0  0  0
   10.5087   -2.2648    0.0000 C   0  0  0  0  0  0  0  0  0  0  0  0
    9.7759   -2.6383    0.0000 N   0  0  0  0  0  0  0  0  0  0  0  0
    9.1917   -2.0569    0.0000 C   0  0  0  0  0  0  0  0  0  0  0  0
    9.5674   -1.3224    0.0000 C   0  0  0  0  0  0  0  0  0  0  0  0
   10.3826   -1.4520    0.0000 S   0  0  0  0  0  0  0  0  0  0  0  0
   14.7834   -2.0464    0.0000 C   0  0  0  0  0  0  0  0  0  0  0  0
   15.5179   -2.4221    0.0000 C   0  0  0  0  0  0  0  0  0  0  0  0
   17.7178   -3.5473    0.0000 C   0  0  0  0  0  0  0  0  0  0  0  0
   18.4076   -3.1000    0.0000 C   0  0  0  0  0  0  0  0  0  0  0  0
   19.1421   -3.4756    0.0000 C   0  0  0  0  0  0  0  0  0  0  0  0
   19.1831   -4.2967    0.0000 C   0  0  0  0  0  0  0  0  0  0  0  0
   18.4915   -4.7476    0.0000 C   0  0  0  0  0  0  0  0  0  0  0  0
   17.7570   -4.3720    0.0000 C   0  0  0  0  0  0  0  0  0  0  0  0
  1  2  1  0  0  0  0 
  2  3  1  0  0  0  0 
  3  4  1  0  0  0  0 
  4  5  2  0  0  0  0 
  5  6  1  0  0  0  0 
  6  7  1  0  0  0  0 
  7  8  1  0  0  0  0 
  8  9  2  0  0  0  0 
  9 10  1  0  0  0  0 
 10 11  2  0  0  0  0 
 11 12  1  0  0  0  0 
 12 13  2  0  0  0  0 
  8 13  1  0  0  0  0 
 12 14  1  0  0  0  0 
 14 15  2  0  0  0  0 
 15 16  1  0  0  0  0 
 16 17  2  0  0  0  0 
 17 18  1  0  0  0  0 
 14 18  1  0  0  0  0 
  6 19  2  0  0  0  0 
 19 20  1  0  0  0  0 
  3 20  2  0  0  0  0 
  1 21  1  0  0  0  0 
 21 22  1  0  0  0  0 
 22 23  1  0  0  0  0 
 23 24  1  0  0  0  0 
 24 25  1  0  0  0  0 
 25 26  1  0  0  0  0 
 21 26  1  0  0  0  0 
M  END

>  <pIC50>
5.69897000434

$$$$

  CDK    9/16/09,10:7

 31 34  0  0  0  0  0  0  0  0999 V2000
    3.5933   -9.6556    0.0000 C   0  0  0  0  0  0  0  0  0  0  0  0
    2.8816   -9.2450    0.0000 O   0  0  0  0  0  0  0  0  0  0  0  0
    2.8805   -8.4164    0.0000 C   0  0  0  0  0  0  0  0  0  0  0  0
    2.1687   -8.0058    0.0000 C   0  0  0  0  0  0  0  0  0  0  0  0
    2.1656   -7.1808    0.0000 C   0  0  0  0  0  0  0  0  0  0  0  0
    1.4539   -6.7702    0.0000 N   0  0  0  0  0  0  0  0  0  0  0  0
    0.7380   -7.1803    0.0000 C   0  0  0  0  0  0  0  0  0  0  0  0
    0.7391   -8.0089    0.0000 N   0  0  0  0  0  0  0  0  0  0  0  0
    0.0234   -8.4192    0.0000 C   0  0  0  0  0  0  0  0  0  0  0  0
    0.0265   -9.2442    0.0000 N   0  0  0  0  0  0  0  0  0  0  0  0
    0.7382   -9.6548    0.0000 C   0  0  0  0  0  0  0  0  0  0  0  0
    0.7414  -10.4797    0.0000 C   0  0  0  0  0  0  0  0  0  0  0  0
    1.4532  -10.8904    0.0000 C   0  0  0  0  0  0  0  0  0  0  0  0
    1.4543  -11.7189    0.0000 C   0  0  0  0  0  0  0  0  0  0  0  0
    0.7385  -12.1292    0.0000 N   0  0  0  0  0  0  0  0  0  0  0  0
    0.0268  -11.7185    0.0000 C   0  0  0  0  0  0  0  0  0  0  0  0
    0.0236  -10.8935    0.0000 C   0  0  0  0  0  0  0  0  0  0  0  0
   -0.6883   -8.0085    0.0000 N   0  0  0  0  0  0  0  0  0  0  0  0
   -1.4724   -8.2651    0.0000 C   0  0  0  0  0  0  0  0  0  0  0  0
   -1.9588   -7.5963    0.0000 C   0  0  0  0  0  0  0  0  0  0  0  0
   -1.4727   -6.9311    0.0000 N   0  0  0  0  0  0  0  0  0  0  0  0
   -0.6915   -7.1835    0.0000 C   0  0  0  0  0  0  0  0  0  0  0  0
    0.0263   -6.7698    0.0000 C   0  0  0  0  0  0  0  0  0  0  0  0
    0.0231   -5.9448    0.0000 C   0  0  0  0  0  0  0  0  0  0  0  0
   -0.6886   -5.5341    0.0000 O   0  0  0  0  0  0  0  0  0  0  0  0
    0.7389   -5.5345    0.0000 N   0  0  0  0  0  0  0  0  0  0  0  0
    2.8814   -6.7706    0.0000 C   0  0  0  0  0  0  0  0  0  0  0  0
    3.5931   -7.1812    0.0000 C   0  0  0  0  0  0  0  0  0  0  0  0
    4.3089   -6.7710    0.0000 O   0  0  0  0  0  0  0  0  0  0  0  0
    5.0207   -7.1816    0.0000 C   0  0  0  0  0  0  0  0  0  0  0  0
    3.5963   -8.0062    0.0000 C   0  0  0  0  0  0  0  0  0  0  0  0
  1  2  1  0  0  0  0 
  2  3  1  0  0  0  0 
  3  4  2  0  0  0  0 
  4  5  1  0  0  0  0 
  5  6  1  0  0  0  0 
  6  7  1  0  0  0  0 
  7  8  1  0  0  0  0 
  8  9  2  0  0  0  0 
  9 10  1  0  0  0  0 
 10 11  1  0  0  0  0 
 11 12  1  0  0  0  0 
 12 13  1  0  0  0  0 
 13 14  2  0  0  0  0 
 14 15  1  0  0  0  0 
 15 16  2  0  0  0  0 
 16 17  1  0  0  0  0 
 12 17  2  0  0  0  0 
  9 18  1  0  0  0  0 
 18 19  1  0  0  0  0 
 19 20  2  0  0  0  0 
 20 21  1  0  0  0  0 
 21 22  2  0  0  0  0 
 18 22  1  0  0  0  0 
 22 23  1  0  0  0  0 
  7 23  2  0  0  0  0 
 23 24  1  0  0  0  0 
 24 25  2  0  0  0  0 
 24 26  1  0  0  0  0 
  5 27  2  0  0  0  0 
 27 28  1  0  0  0  0 
 28 29  1  0  0  0  0 
 29 30  1  0  0  0  0 
 28 31  2  0  0  0  0 
  3 31  1  0  0  0  0 
M  END

>  <pIC50>
5.63827216398

$$$$

  CDK    9/16/09,10:7

 22 24  0  0  0  0  0  0  0  0999 V2000
   10.8780   -7.3796    0.0000 C   0  0  0  0  0  0  0  0  0  0  0  0
   10.1479   -6.9953    0.0000 C   0  0  0  0  0  0  0  0  0  0  0  0
   10.1143   -6.1734    0.0000 C   0  0  0  0  0  0  0  0  0  0  0  0
    9.4495   -7.4367    0.0000 N   0  0  0  0  0  0  0  0  0  0  0  0
    9.4812   -8.2623    0.0000 N   0  0  0  0  0  0  0  0  0  0  0  0
    8.7827   -8.7037    0.0000 C   0  0  0  0  0  0  0  0  0  0  0  0
    8.8163   -9.5256    0.0000 N   0  0  0  0  0  0  0  0  0  0  0  0
    9.5464   -9.9098    0.0000 C   0  0  0  0  0  0  0  0  0  0  0  0
   10.2853   -9.5467    0.0000 C   0  0  0  0  0  0  0  0  0  0  0  0
   10.8618  -10.1360    0.0000 C   0  0  0  0  0  0  0  0  0  0  0  0
   11.6801  -10.0189    0.0000 C   0  0  0  0  0  0  0  0  0  0  0  0
   10.4776  -10.8661    0.0000 N   0  0  0  0  0  0  0  0  0  0  0  0
    9.6635  -10.7282    0.0000 N   0  0  0  0  0  0  0  0  0  0  0  0
    8.0527   -8.3195    0.0000 C   0  0  0  0  0  0  0  0  0  0  0  0
    7.3562   -8.7572    0.0000 C   0  0  0  0  0  0  0  0  0  0  0  0
    6.6261   -8.3730    0.0000 C   0  0  0  0  0  0  0  0  0  0  0  0
    6.5925   -7.5511    0.0000 C   0  0  0  0  0  0  0  0  0  0  0  0
    5.8624   -7.1669    0.0000 O   0  0  0  0  0  0  0  0  0  0  0  0
    7.2909   -7.1097    0.0000 C   0  0  0  0  0  0  0  0  0  0  0  0
    8.0210   -7.4939    0.0000 C   0  0  0  0  0  0  0  0  0  0  0  0
    8.7194   -7.0525    0.0000 C   0  0  0  0  0  0  0  0  0  0  0  0
    8.6878   -6.2269    0.0000 O   0  0  0  0  0  0  0  0  0  0  0  0
  1  2  1  0  0  0  0 
  2  3  1  0  0  0  0 
  2  4  1  0  0  0  0 
  4  5  1  0  0  0  0 
  5  6  2  0  0  0  0 
  6  7  1  0  0  0  0 
  7  8  1  0  0  0  0 
  8  9  1  0  0  0  0 
  9 10  2  0  0  0  0 
 10 11  1  0  0  0  0 
 10 12  1  0  0  0  0 
 12 13  1  0  0  0  0 
  8 13  2  0  0  0  0 
  6 14  1  0  0  0  0 
 14 15  1  0  0  0  0 
 15 16  2  0  0  0  0 
 16 17  1  0  0  0  0 
 17 18  1  0  0  0  0 
 17 19  2  0  0  0  0 
 19 20  1  0  0  0  0 
 14 20  2  0  0  0  0 
 20 21  1  0  0  0  0 
  4 21  1  0  0  0  0 
 21 22  2  0  0  0  0 
M  END

>  <pIC50>
5.59859945922

$$$$

  CDK    9/16/09,10:7

 31 33  0  0  0  0  0  0  0  0999 V2000
   13.6430  -11.1326    0.0000 C   0  0  0  0  0  0  0  0  0  0  0  0
   13.6430  -10.3046    0.0000 C   0  0  0  0  0  0  0  0  0  0  0  0
   12.9283   -9.8928    0.0000 C   0  0  0  0  0  0  0  0  0  0  0  0
   14.3579   -9.8928    0.0000 N   0  0  0  0  0  0  0  0  0  0  0  0
   14.3579   -9.0648    0.0000 N   0  0  0  0  0  0  0  0  0  0  0  0
   15.0727   -8.6529    0.0000 C   0  0  0  0  0  0  0  0  0  0  0  0
   15.0727   -7.8251    0.0000 N   0  0  0  0  0  0  0  0  0  0  0  0
   14.3579   -7.4132    0.0000 C   0  0  0  0  0  0  0  0  0  0  0  0
   13.6046   -7.7461    0.0000 C   0  0  0  0  0  0  0  0  0  0  0  0
   13.0481   -7.1347    0.0000 C   0  0  0  0  0  0  0  0  0  0  0  0
   12.2271   -7.2194    0.0000 C   0  0  0  0  0  0  0  0  0  0  0  0
   13.4642   -6.4158    0.0000 N   0  0  0  0  0  0  0  0  0  0  0  0
   14.2732   -6.5879    0.0000 N   0  0  0  0  0  0  0  0  0  0  0  0
   15.7916   -9.0648    0.0000 C   0  0  0  0  0  0  0  0  0  0  0  0
   16.5063   -8.6529    0.0000 C   0  0  0  0  0  0  0  0  0  0  0  0
   17.2212   -9.0648    0.0000 C   0  0  0  0  0  0  0  0  0  0  0  0
   17.2212   -9.8928    0.0000 C   0  0  0  0  0  0  0  0  0  0  0  0
   17.9360  -10.3046    0.0000 O   0  0  0  0  0  0  0  0  0  0  0  0
   18.6549   -9.8928    0.0000 C   0  0  0  0  0  0  0  0  0  0  0  0
   19.3697  -10.3046    0.0000 C   0  0  0  0  0  0  0  0  0  0  0  0
   20.0845   -9.8928    0.0000 C   0  0  0  0  0  0  0  0  0  0  0  0
   20.7993  -10.3046    0.0000 S   0  0  0  0  0  0  0  0  0  0  0  0
   20.3874  -11.0195    0.0000 O   0  0  0  0  0  0  0  0  0  0  0  0
   21.2154   -9.5857    0.0000 O   0  0  0  0  0  0  0  0  0  0  0  0
   21.5141  -10.7165    0.0000 N   0  0  0  0  0  0  0  0  0  0  0  0
   21.5141  -11.5445    0.0000 C   0  0  0  0  0  0  0  0  0  0  0  0
   22.2330  -10.3046    0.0000 C   0  0  0  0  0  0  0  0  0  0  0  0
   16.5063  -10.3046    0.0000 C   0  0  0  0  0  0  0  0  0  0  0  0
   15.7916   -9.8928    0.0000 C   0  0  0  0  0  0  0  0  0  0  0  0
   15.0727  -10.3046    0.0000 C   0  0  0  0  0  0  0  0  0  0  0  0
   15.0727  -11.1326    0.0000 O   0  0  0  0  0  0  0  0  0  0  0  0
  1  2  1  0  0  0  0 
  2  3  1  0  0  0  0 
  2  4  1  0  0  0  0 
  4  5  1  0  0  0  0 
  5  6  2  0  0  0  0 
  6  7  1  0  0  0  0 
  7  8  1  0  0  0  0 
  8  9  1  0  0  0  0 
  9 10  2  0  0  0  0 
 10 11  1  0  0  0  0 
 10 12  1  0  0  0  0 
 12 13  1  0  0  0  0 
  8 13  2  0  0  0  0 
  6 14  1  0  0  0  0 
 14 15  1  0  0  0  0 
 15 16  2  0  0  0  0 
 16 17  1  0  0  0  0 
 17 18  1  0  0  0  0 
 18 19  1  0  0  0  0 
 19 20  1  0  0  0  0 
 20 21  1  0  0  0  0 
 21 22  1  0  0  0  0 
 22 23  2  0  0  0  0 
 22 24  2  0  0  0  0 
 22 25  1  0  0  0  0 
 25 26  1  0  0  0  0 
 25 27  1  0  0  0  0 
 17 28  2  0  0  0  0 
 28 29  1  0  0  0  0 
 14 29  2  0  0  0  0 
 29 30  1  0  0  0  0 
  4 30  1  0  0  0  0 
 30 31  2  0  0  0  0 
M  END

>  <pIC50>
5.51999305704

$$$$

  CDK    9/16/09,10:7

 29 32  0  0  0  0  0  0  0  0999 V2000
    5.3944  -16.4072    0.0000 C   0  0  0  0  0  0  0  0  0  0  0  0
    4.6796  -16.8191    0.0000 O   0  0  0  0  0  0  0  0  0  0  0  0
    3.9649  -16.4072    0.0000 C   0  0  0  0  0  0  0  0  0  0  0  0
    3.2500  -16.8191    0.0000 C   0  0  0  0  0  0  0  0  0  0  0  0
    2.5311  -16.4072    0.0000 C   0  0  0  0  0  0  0  0  0  0  0  0
    2.5311  -15.5793    0.0000 C   0  0  0  0  0  0  0  0  0  0  0  0
    3.2500  -15.1674    0.0000 C   0  0  0  0  0  0  0  0  0  0  0  0
    3.9649  -15.5793    0.0000 C   0  0  0  0  0  0  0  0  0  0  0  0
    1.8163  -15.1674    0.0000 C   0  0  0  0  0  0  0  0  0  0  0  0
    1.1014  -15.5793    0.0000 C   0  0  0  0  0  0  0  0  0  0  0  0
    0.3867  -15.1674    0.0000 C   0  0  0  0  0  0  0  0  0  0  0  0
   -0.3323  -15.5793    0.0000 N   0  0  0  0  0  0  0  0  0  0  0  0
   -1.0470  -15.1674    0.0000 C   0  0  0  0  0  0  0  0  0  0  0  0
   -1.0470  -14.3395    0.0000 C   0  0  0  0  0  0  0  0  0  0  0  0
   -0.3323  -13.9276    0.0000 C   0  0  0  0  0  0  0  0  0  0  0  0
    0.3867  -14.3395    0.0000 C   0  0  0  0  0  0  0  0  0  0  0  0
    1.1014  -13.9276    0.0000 C   0  0  0  0  0  0  0  0  0  0  0  0
    1.1014  -13.0996    0.0000 N   0  0  0  0  0  0  0  0  0  0  0  0
    1.8163  -12.6878    0.0000 C   0  0  0  0  0  0  0  0  0  0  0  0
    2.5311  -13.0996    0.0000 C   0  0  0  0  0  0  0  0  0  0  0  0
    3.2500  -12.6878    0.0000 C   0  0  0  0  0  0  0  0  0  0  0  0
    3.9649  -13.0996    0.0000 N   0  0  0  0  0  0  0  0  0  0  0  0
    1.8163  -14.3395    0.0000 N   0  0  0  0  0  0  0  0  0  0  0  0
   -1.7619  -15.5793    0.0000 C   0  0  0  0  0  0  0  0  0  0  0  0
   -1.7619  -16.4072    0.0000 C   0  0  0  0  0  0  0  0  0  0  0  0
   -2.4767  -16.8191    0.0000 C   0  0  0  0  0  0  0  0  0  0  0  0
   -3.1914  -16.4072    0.0000 C   0  0  0  0  0  0  0  0  0  0  0  0
   -3.1914  -15.5793    0.0000 C   0  0  0  0  0  0  0  0  0  0  0  0
   -2.4767  -15.1674    0.0000 C   0  0  0  0  0  0  0  0  0  0  0  0
  1  2  1  0  0  0  0 
  2  3  1  0  0  0  0 
  3  4  1  0  0  0  0 
  4  5  2  0  0  0  0 
  5  6  1  0  0  0  0 
  6  7  2  0  0  0  0 
  7  8  1  0  0  0  0 
  3  8  2  0  0  0  0 
  6  9  1  0  0  0  0 
  9 10  2  0  0  0  0 
 10 11  1  0  0  0  0 
 11 12  2  0  0  0  0 
 12 13  1  0  0  0  0 
 13 14  2  0  0  0  0 
 14 15  1  0  0  0  0 
 15 16  2  0  0  0  0 
 11 16  1  0  0  0  0 
 16 17  1  0  0  0  0 
 17 18  1  0  0  0  0 
 18 19  1  0  0  0  0 
 19 20  1  0  0  0  0 
 20 21  1  0  0  0  0 
 21 22  1  0  0  0  0 
 17 23  2  0  0  0  0 
  9 23  1  0  0  0  0 
 13 24  1  0  0  0  0 
 24 25  2  0  0  0  0 
 25 26  1  0  0  0  0 
 26 27  2  0  0  0  0 
 27 28  1  0  0  0  0 
 28 29  2  0  0  0  0 
 24 29  1  0  0  0  0 
M  END

>  <pIC50>
5.44369749923

$$$$

  CDK    9/16/09,10:7

 31 33  0  0  0  0  0  0  0  0999 V2000
    6.1781  -15.5418    0.0000 C   0  0  0  0  0  0  0  0  0  0  0  0
    6.6111  -16.2451    0.0000 C   0  0  0  0  0  0  0  0  0  0  0  0
    7.4362  -16.2225    0.0000 C   0  0  0  0  0  0  0  0  0  0  0  0
    7.8284  -15.4967    0.0000 C   0  0  0  0  0  0  0  0  0  0  0  0
    8.6502  -15.4762    0.0000 C   0  0  0  0  0  0  0  0  0  0  0  0
    9.0465  -14.7504    0.0000 N   0  0  0  0  0  0  0  0  0  0  0  0
    8.6134  -14.0472    0.0000 C   0  0  0  0  0  0  0  0  0  0  0  0
    9.0098  -13.3213    0.0000 C   0  0  0  0  0  0  0  0  0  0  0  0
    9.3984  -12.5977    0.0000 C   0  0  0  0  0  0  0  0  0  0  0  0
    9.7293  -13.7099    0.0000 C   0  0  0  0  0  0  0  0  0  0  0  0
    8.2839  -12.9292    0.0000 N   0  0  0  0  0  0  0  0  0  0  0  0
    9.0831  -16.1753    0.0000 N   0  0  0  0  0  0  0  0  0  0  0  0
    9.8937  -16.3299    0.0000 N   0  0  0  0  0  0  0  0  0  0  0  0
   10.0011  -17.1431    0.0000 C   0  0  0  0  0  0  0  0  0  0  0  0
   10.7269  -17.5353    0.0000 N   0  0  0  0  0  0  0  0  0  0  0  0
   11.4260  -17.1064    0.0000 C   0  0  0  0  0  0  0  0  0  0  0  0
   11.4035  -16.2812    0.0000 C   0  0  0  0  0  0  0  0  0  0  0  0
   12.1067  -15.8482    0.0000 C   0  0  0  0  0  0  0  0  0  0  0  0
   12.0862  -15.0266    0.0000 O   0  0  0  0  0  0  0  0  0  0  0  0
   12.7895  -14.5977    0.0000 C   0  0  0  0  0  0  0  0  0  0  0  0
   12.8325  -16.2445    0.0000 C   0  0  0  0  0  0  0  0  0  0  0  0
   12.8551  -17.0697    0.0000 C   0  0  0  0  0  0  0  0  0  0  0  0
   13.5788  -17.4583    0.0000 O   0  0  0  0  0  0  0  0  0  0  0  0
   14.2820  -17.0295    0.0000 C   0  0  0  0  0  0  0  0  0  0  0  0
   12.1518  -17.4986    0.0000 C   0  0  0  0  0  0  0  0  0  0  0  0
    9.2560  -17.4987    0.0000 C   0  0  0  0  0  0  0  0  0  0  0  0
    9.1057  -18.3092    0.0000 C   0  0  0  0  0  0  0  0  0  0  0  0
    9.7314  -18.8446    0.0000 O   0  0  0  0  0  0  0  0  0  0  0  0
    8.3289  -18.5821    0.0000 N   0  0  0  0  0  0  0  0  0  0  0  0
    8.6904  -16.8990    0.0000 C   0  0  0  0  0  0  0  0  0  0  0  0
    7.8651  -16.9216    0.0000 N   0  0  0  0  0  0  0  0  0  0  0  0
  1  2  1  0  0  0  0 
  2  3  1  0  0  0  0 
  3  4  1  0  0  0  0 
  4  5  2  0  0  0  0 
  5  6  1  0  0  0  0 
  6  7  1  0  0  0  0 
  7  8  1  0  0  0  0 
  8  9  1  0  0  0  0 
  8 10  1  0  0  0  0 
  8 11  1  0  0  0  0 
  5 12  1  0  0  0  0 
 12 13  1  0  0  0  0 
 13 14  2  0  0  0  0 
 14 15  1  0  0  0  0 
 15 16  1  0  0  0  0 
 16 17  2  0  0  0  0 
 17 18  1  0  0  0  0 
 18 19  1  0  0  0  0 
 19 20  1  0  0  0  0 
 18 21  2  0  0  0  0 
 21 22  1  0  0  0  0 
 22 23  1  0  0  0  0 
 23 24  1  0  0  0  0 
 22 25  2  0  0  0  0 
 16 25  1  0  0  0  0 
 14 26  1  0  0  0  0 
 26 27  1  0  0  0  0 
 27 28  2  0  0  0  0 
 27 29  1  0  0  0  0 
 26 30  2  0  0  0  0 
 12 30  1  0  0  0  0 
 30 31  1  0  0  0  0 
  3 31  2  0  0  0  0 
M  END

>  <pIC50>
5.41005039867

$$$$

  CDK    9/16/09,10:7

 30 33  0  0  0  0  0  0  0  0999 V2000
    3.3524  -18.9111    0.0000 C   0  0  0  0  0  0  0  0  0  0  0  0
    3.7649  -19.6228    0.0000 O   0  0  0  0  0  0  0  0  0  0  0  0
    4.5899  -19.6228    0.0000 C   0  0  0  0  0  0  0  0  0  0  0  0
    5.0024  -18.9111    0.0000 O   0  0  0  0  0  0  0  0  0  0  0  0
    5.0024  -20.3387    0.0000 C   0  0  0  0  0  0  0  0  0  0  0  0
    5.8274  -20.3387    0.0000 C   0  0  0  0  0  0  0  0  0  0  0  0
    6.2441  -21.0504    0.0000 C   0  0  0  0  0  0  0  0  0  0  0  0
    5.8274  -21.7663    0.0000 C   0  0  0  0  0  0  0  0  0  0  0  0
    5.0024  -21.7663    0.0000 C   0  0  0  0  0  0  0  0  0  0  0  0
    4.5899  -21.0504    0.0000 C   0  0  0  0  0  0  0  0  0  0  0  0
    3.7649  -21.0504    0.0000 C   0  0  0  0  0  0  0  0  0  0  0  0
    3.2802  -21.7200    0.0000 O   0  0  0  0  0  0  0  0  0  0  0  0
    2.4955  -21.4629    0.0000 C   0  0  0  0  0  0  0  0  0  0  0  0
    1.8259  -21.9476    0.0000 C   0  0  0  0  0  0  0  0  0  0  0  0
    1.0756  -21.6142    0.0000 C   0  0  0  0  0  0  0  0  0  0  0  0
    0.3598  -22.0267    0.0000 S   0  0  0  0  0  0  0  0  0  0  0  0
   -0.2525  -21.4736    0.0000 C   0  0  0  0  0  0  0  0  0  0  0  0
   -1.0585  -21.6460    0.0000 S   0  0  0  0  0  0  0  0  0  0  0  0
    0.0809  -20.7192    0.0000 N   0  0  0  0  0  0  0  0  0  0  0  0
   -0.3316  -20.0075    0.0000 C   0  0  0  0  0  0  0  0  0  0  0  0
   -1.1607  -20.0075    0.0000 C   0  0  0  0  0  0  0  0  0  0  0  0
   -1.5691  -20.7192    0.0000 C   0  0  0  0  0  0  0  0  0  0  0  0
   -2.3941  -20.7192    0.0000 C   0  0  0  0  0  0  0  0  0  0  0  0
   -2.8107  -20.0075    0.0000 C   0  0  0  0  0  0  0  0  0  0  0  0
   -2.3941  -19.2875    0.0000 C   0  0  0  0  0  0  0  0  0  0  0  0
   -1.5691  -19.2875    0.0000 C   0  0  0  0  0  0  0  0  0  0  0  0
    0.9033  -20.8082    0.0000 C   0  0  0  0  0  0  0  0  0  0  0  0
    1.4563  -20.1918    0.0000 O   0  0  0  0  0  0  0  0  0  0  0  0
    2.4955  -20.6379    0.0000 C   0  0  0  0  0  0  0  0  0  0  0  0
    3.2802  -20.3850    0.0000 C   0  0  0  0  0  0  0  0  0  0  0  0
  1  2  1  0  0  0  0 
  2  3  1  0  0  0  0 
  3  4  2  0  0  0  0 
  3  5  1  0  0  0  0 
  5  6  1  0  0  0  0 
  6  7  2  0  0  0  0 
  7  8  1  0  0  0  0 
  8  9  2  0  0  0  0 
  9 10  1  0  0  0  0 
  5 10  2  0  0  0  0 
 10 11  1  0  0  0  0 
 11 12  1  0  0  0  0 
 12 13  1  0  0  0  0 
 13 14  1  0  0  0  0 
 14 15  2  0  0  0  0 
 15 16  1  0  0  0  0 
 16 17  1  0  0  0  0 
 17 18  2  0  0  0  0 
 17 19  1  0  0  0  0 
 19 20  1  0  0  0  0 
 20 21  1  0  0  0  0 
 21 22  2  0  0  0  0 
 22 23  1  0  0  0  0 
 23 24  2  0  0  0  0 
 24 25  1  0  0  0  0 
 25 26  2  0  0  0  0 
 21 26  1  0  0  0  0 
 19 27  1  0  0  0  0 
 15 27  1  0  0  0  0 
 27 28  2  0  0  0  0 
 13 29  2  0  0  0  0 
 29 30  1  0  0  0  0 
 11 30  2  0  0  0  0 
M  END

>  <pIC50>
5.39794000867

$$$$

  CDK    9/16/09,10:7

 26 29  0  0  0  0  0  0  0  0999 V2000
   10.5705  -22.7223    0.0000 C   0  0  0  0  0  0  0  0  0  0  0  0
   11.2937  -22.3330    0.0000 C   0  0  0  0  0  0  0  0  0  0  0  0
   11.4071  -21.5133    0.0000 C   0  0  0  0  0  0  0  0  0  0  0  0
   10.8062  -20.9446    0.0000 C   0  0  0  0  0  0  0  0  0  0  0  0
    9.7786  -21.2507    0.0000 C   0  0  0  0  0  0  0  0  0  0  0  0
    9.1230  -20.7473    0.0000 C   0  0  0  0  0  0  0  0  0  0  0  0
    9.1458  -19.9225    0.0000 O   0  0  0  0  0  0  0  0  0  0  0  0
    8.4416  -21.2130    0.0000 N   0  0  0  0  0  0  0  0  0  0  0  0
    8.6768  -22.0032    0.0000 C   0  0  0  0  0  0  0  0  0  0  0  0
    8.2450  -22.7060    0.0000 C   0  0  0  0  0  0  0  0  0  0  0  0
    8.6378  -23.4314    0.0000 C   0  0  0  0  0  0  0  0  0  0  0  0
    9.4626  -23.4542    0.0000 C   0  0  0  0  0  0  0  0  0  0  0  0
    9.8944  -22.7515    0.0000 C   0  0  0  0  0  0  0  0  0  0  0  0
    9.5015  -22.0260    0.0000 C   0  0  0  0  0  0  0  0  0  0  0  0
    9.8554  -24.1797    0.0000 S   0  0  0  0  0  0  0  0  0  0  0  0
    9.1299  -24.5726    0.0000 O   0  0  0  0  0  0  0  0  0  0  0  0
   10.5809  -23.7868    0.0000 O   0  0  0  0  0  0  0  0  0  0  0  0
   10.2483  -24.9051    0.0000 N   0  0  0  0  0  0  0  0  0  0  0  0
   12.2184  -21.3662    0.0000 C   0  0  0  0  0  0  0  0  0  0  0  0
   12.6503  -20.6634    0.0000 C   0  0  0  0  0  0  0  0  0  0  0  0
   13.4750  -20.6863    0.0000 C   0  0  0  0  0  0  0  0  0  0  0  0
   13.8643  -21.4096    0.0000 C   0  0  0  0  0  0  0  0  0  0  0  0
   13.4325  -22.1122    0.0000 C   0  0  0  0  0  0  0  0  0  0  0  0
   12.6113  -22.0917    0.0000 C   0  0  0  0  0  0  0  0  0  0  0  0
   12.0412  -22.6869    0.0000 N   0  0  0  0  0  0  0  0  0  0  0  0
   12.1883  -23.4982    0.0000 C   0  0  0  0  0  0  0  0  0  0  0  0
  1  2  1  0  0  0  0 
  2  3  2  0  0  0  0 
  3  4  1  0  0  0  0 
  4  5  2  0  0  0  0 
  5  6  1  0  0  0  0 
  6  7  2  0  0  0  0 
  6  8  1  0  0  0  0 
  8  9  1  0  0  0  0 
  9 10  1  0  0  0  0 
 10 11  2  0  0  0  0 
 11 12  1  0  0  0  0 
 12 13  2  0  0  0  0 
 13 14  1  0  0  0  0 
  5 14  1  0  0  0  0 
  9 14  2  0  0  0  0 
 12 15  1  0  0  0  0 
 15 16  2  0  0  0  0 
 15 17  2  0  0  0  0 
 15 18  1  0  0  0  0 
  3 19  1  0  0  0  0 
 19 20  1  0  0  0  0 
 20 21  2  0  0  0  0 
 21 22  1  0  0  0  0 
 22 23  2  0  0  0  0 
 23 24  1  0  0  0  0 
 19 24  2  0  0  0  0 
 24 25  1  0  0  0  0 
  2 25  1  0  0  0  0 
 25 26  1  0  0  0  0 
M  END

>  <pIC50>
5.39794000867

$$$$

  CDK    9/16/09,10:7

 36 40  0  0  0  0  0  0  0  0999 V2000
   12.7871  -19.4481    0.0000 C   0  0  0  0  0  0  0  0  0  0  0  0
   13.5037  -19.0454    0.0000 O   0  0  0  0  0  0  0  0  0  0  0  0
   14.2141  -19.4649    0.0000 C   0  0  0  0  0  0  0  0  0  0  0  0
   14.9306  -19.0623    0.0000 C   0  0  0  0  0  0  0  0  0  0  0  0
   15.6410  -19.4818    0.0000 C   0  0  0  0  0  0  0  0  0  0  0  0
   15.6348  -20.3082    0.0000 C   0  0  0  0  0  0  0  0  0  0  0  0
   16.3452  -20.7277    0.0000 C   0  0  0  0  0  0  0  0  0  0  0  0
   17.0617  -20.3249    0.0000 N   0  0  0  0  0  0  0  0  0  0  0  0
   17.7720  -20.7444    0.0000 S   0  0  0  0  0  0  0  0  0  0  0  0
   18.1915  -20.0341    0.0000 O   0  0  0  0  0  0  0  0  0  0  0  0
   17.3526  -21.4548    0.0000 O   0  0  0  0  0  0  0  0  0  0  0  0
   18.4824  -21.1640    0.0000 C   0  0  0  0  0  0  0  0  0  0  0  0
   18.4721  -21.9904    0.0000 C   0  0  0  0  0  0  0  0  0  0  0  0
   19.1824  -22.4099    0.0000 C   0  0  0  0  0  0  0  0  0  0  0  0
   19.8989  -22.0072    0.0000 C   0  0  0  0  0  0  0  0  0  0  0  0
   20.6807  -22.2688    0.0000 N   0  0  0  0  0  0  0  0  0  0  0  0
   21.1754  -21.6101    0.0000 C   0  0  0  0  0  0  0  0  0  0  0  0
   22.0018  -21.6204    0.0000 O   0  0  0  0  0  0  0  0  0  0  0  0
   20.6958  -20.9383    0.0000 C   0  0  0  0  0  0  0  0  0  0  0  0
   20.9616  -20.1567    0.0000 C   0  0  0  0  0  0  0  0  0  0  0  0
   21.7722  -19.9949    0.0000 C   0  0  0  0  0  0  0  0  0  0  0  0
   22.3768  -20.5527    0.0000 C   0  0  0  0  0  0  0  0  0  0  0  0
   23.0975  -20.1500    0.0000 N   0  0  0  0  0  0  0  0  0  0  0  0
   23.8477  -20.4914    0.0000 C   0  0  0  0  0  0  0  0  0  0  0  0
   22.9358  -19.3396    0.0000 C   0  0  0  0  0  0  0  0  0  0  0  0
   23.4263  -18.6765    0.0000 C   0  0  0  0  0  0  0  0  0  0  0  0
   23.1032  -17.9188    0.0000 C   0  0  0  0  0  0  0  0  0  0  0  0
   22.2810  -17.8240    0.0000 C   0  0  0  0  0  0  0  0  0  0  0  0
   21.9537  -17.0662    0.0000 O   0  0  0  0  0  0  0  0  0  0  0  0
   22.4485  -16.4032    0.0000 C   0  0  0  0  0  0  0  0  0  0  0  0
   21.7903  -18.4870    0.0000 C   0  0  0  0  0  0  0  0  0  0  0  0
   22.1176  -19.2448    0.0000 C   0  0  0  0  0  0  0  0  0  0  0  0
   19.9093  -21.1808    0.0000 C   0  0  0  0  0  0  0  0  0  0  0  0
   19.2031  -20.7613    0.0000 C   0  0  0  0  0  0  0  0  0  0  0  0
   14.9141  -20.7109    0.0000 C   0  0  0  0  0  0  0  0  0  0  0  0
   14.2037  -20.2913    0.0000 C   0  0  0  0  0  0  0  0  0  0  0  0
  1  2  1  0  0  0  0 
  2  3  1  0  0  0  0 
  3  4  2  0  0  0  0 
  4  5  1  0  0  0  0 
  5  6  2  0  0  0  0 
  6  7  1  0  0  0  0 
  7  8  1  0  0  0  0 
  8  9  1  0  0  0  0 
  9 10  2  0  0  0  0 
  9 11  2  0  0  0  0 
  9 12  1  0  0  0  0 
 12 13  1  0  0  0  0 
 13 14  2  0  0  0  0 
 14 15  1  0  0  0  0 
 15 16  1  0  0  0  0 
 16 17  1  0  0  0  0 
 17 18  2  0  0  0  0 
 17 19  1  0  0  0  0 
 19 20  2  0  0  0  0 
 20 21  1  0  0  0  0 
 21 22  2  0  0  0  0 
 22 23  1  0  0  0  0 
 23 24  1  0  0  0  0 
 23 25  1  0  0  0  0 
 25 26  1  0  0  0  0 
 26 27  2  0  0  0  0 
 27 28  1  0  0  0  0 
 28 29  1  0  0  0  0 
 29 30  1  0  0  0  0 
 28 31  2  0  0  0  0 
 31 32  1  0  0  0  0 
 21 32  1  0  0  0  0 
 25 32  2  0  0  0  0 
 19 33  1  0  0  0  0 
 15 33  2  0  0  0  0 
 33 34  1  0  0  0  0 
 12 34  2  0  0  0  0 
  6 35  1  0  0  0  0 
 35 36  2  0  0  0  0 
  3 36  1  0  0  0  0 
M  END

>  <pIC50>
5.39794000867

$$$$

  CDK    9/16/09,10:7

 25 27  0  0  0  0  0  0  0  0999 V2000
    1.7429   -0.6245    0.0000 C   0  0  0  0  0  0  0  0  0  0  0  0
    1.7819   -1.4462    0.0000 C   0  0  0  0  0  0  0  0  0  0  0  0
    2.5144   -1.8257    0.0000 C   0  0  0  0  0  0  0  0  0  0  0  0
    1.0863   -1.8921    0.0000 N   0  0  0  0  0  0  0  0  0  0  0  0
    1.1233   -2.7175    0.0000 N   0  0  0  0  0  0  0  0  0  0  0  0
    0.4278   -3.1634    0.0000 C   0  0  0  0  0  0  0  0  0  0  0  0
    0.4667   -3.9850    0.0000 N   0  0  0  0  0  0  0  0  0  0  0  0
    1.1992   -4.3645    0.0000 C   0  0  0  0  0  0  0  0  0  0  0  0
    1.9357   -3.9966    0.0000 C   0  0  0  0  0  0  0  0  0  0  0  0
    2.5161   -4.5821    0.0000 C   0  0  0  0  0  0  0  0  0  0  0  0
    3.3336   -4.4597    0.0000 C   0  0  0  0  0  0  0  0  0  0  0  0
    2.1366   -5.3147    0.0000 N   0  0  0  0  0  0  0  0  0  0  0  0
    1.3216   -5.1821    0.0000 N   0  0  0  0  0  0  0  0  0  0  0  0
   -0.3048   -2.7839    0.0000 C   0  0  0  0  0  0  0  0  0  0  0  0
   -0.9984   -3.2261    0.0000 C   0  0  0  0  0  0  0  0  0  0  0  0
   -1.7310   -2.8466    0.0000 C   0  0  0  0  0  0  0  0  0  0  0  0
   -1.7699   -2.0249    0.0000 C   0  0  0  0  0  0  0  0  0  0  0  0
   -1.0743   -1.5790    0.0000 C   0  0  0  0  0  0  0  0  0  0  0  0
   -0.3418   -1.9585    0.0000 C   0  0  0  0  0  0  0  0  0  0  0  0
    0.3538   -1.5126    0.0000 C   0  0  0  0  0  0  0  0  0  0  0  0
    0.3168   -0.6872    0.0000 O   0  0  0  0  0  0  0  0  0  0  0  0
   -2.5024   -1.6455    0.0000 S   0  0  0  0  0  0  0  0  0  0  0  0
   -2.8819   -2.3780    0.0000 O   0  0  0  0  0  0  0  0  0  0  0  0
   -2.1229   -0.9129    0.0000 O   0  0  0  0  0  0  0  0  0  0  0  0
   -3.2350   -1.2660    0.0000 C   0  0  0  0  0  0  0  0  0  0  0  0
  1  2  1  0  0  0  0 
  2  3  1  0  0  0  0 
  2  4  1  0  0  0  0 
  4  5  1  0  0  0  0 
  5  6  2  0  0  0  0 
  6  7  1  0  0  0  0 
  7  8  1  0  0  0  0 
  8  9  1  0  0  0  0 
  9 10  2  0  0  0  0 
 10 11  1  0  0  0  0 
 10 12  1  0  0  0  0 
 12 13  1  0  0  0  0 
  8 13  2  0  0  0  0 
  6 14  1  0  0  0  0 
 14 15  1  0  0  0  0 
 15 16  2  0  0  0  0 
 16 17  1  0  0  0  0 
 17 18  2  0  0  0  0 
 18 19  1  0  0  0  0 
 14 19  2  0  0  0  0 
 19 20  1  0  0  0  0 
  4 20  1  0  0  0  0 
 20 21  2  0  0  0  0 
 17 22  1  0  0  0  0 
 22 23  2  0  0  0  0 
 22 24  2  0  0  0  0 
 22 25  1  0  0  0  0 
M  END

>  <pIC50>
5.36754270782

$$$$

  CDK    9/16/09,10:7

 21 22  0  0  0  0  0  0  0  0999 V2000
    7.8110   -1.7083    0.0000 C   0  0  0  0  0  0  0  0  0  0  0  0
    7.8060   -2.5344    0.0000 C   0  0  0  0  0  0  0  0  0  0  0  0
    8.5182   -2.9506    0.0000 N   0  0  0  0  0  0  0  0  0  0  0  0
    8.5132   -3.7767    0.0000 C   0  0  0  0  0  0  0  0  0  0  0  0
    7.7960   -4.1866    0.0000 C   0  0  0  0  0  0  0  0  0  0  0  0
    7.7931   -5.0091    0.0000 C   0  0  0  0  0  0  0  0  0  0  0  0
    7.0758   -5.4191    0.0000 O   0  0  0  0  0  0  0  0  0  0  0  0
    8.5053   -5.4254    0.0000 N   0  0  0  0  0  0  0  0  0  0  0  0
    7.0837   -3.7704    0.0000 C   0  0  0  0  0  0  0  0  0  0  0  0
    6.3686   -4.1768    0.0000 N   0  0  0  0  0  0  0  0  0  0  0  0
    5.6563   -3.7606    0.0000 C   0  0  0  0  0  0  0  0  0  0  0  0
    4.9391   -4.1705    0.0000 C   0  0  0  0  0  0  0  0  0  0  0  0
    4.2268   -3.7543    0.0000 C   0  0  0  0  0  0  0  0  0  0  0  0
    4.2319   -2.9282    0.0000 C   0  0  0  0  0  0  0  0  0  0  0  0
    4.9470   -2.5218    0.0000 C   0  0  0  0  0  0  0  0  0  0  0  0
    5.6592   -2.9381    0.0000 C   0  0  0  0  0  0  0  0  0  0  0  0
    4.9520   -1.6957    0.0000 C   0  0  0  0  0  0  0  0  0  0  0  0
    5.7745   -1.6987    0.0000 F   0  0  0  0  0  0  0  0  0  0  0  0
    4.1259   -1.6907    0.0000 F   0  0  0  0  0  0  0  0  0  0  0  0
    4.9570   -0.8696    0.0000 F   0  0  0  0  0  0  0  0  0  0  0  0
    7.0887   -2.9443    0.0000 N   0  0  0  0  0  0  0  0  0  0  0  0
  1  2  1  0  0  0  0 
  2  3  1  0  0  0  0 
  3  4  2  0  0  0  0 
  4  5  1  0  0  0  0 
  5  6  1  0  0  0  0 
  6  7  2  0  0  0  0 
  6  8  1  0  0  0  0 
  5  9  2  0  0  0  0 
  9 10  1  0  0  0  0 
 10 11  1  0  0  0  0 
 11 12  2  0  0  0  0 
 12 13  1  0  0  0  0 
 13 14  2  0  0  0  0 
 14 15  1  0  0  0  0 
 15 16  2  0  0  0  0 
 11 16  1  0  0  0  0 
 15 17  1  0  0  0  0 
 17 18  1  0  0  0  0 
 17 19  1  0  0  0  0 
 17 20  1  0  0  0  0 
  9 21  1  0  0  0  0 
  2 21  2  0  0  0  0 
M  END

>  <pIC50>
5.30102999566

$$$$

  CDK    9/16/09,10:7

 27 29  0  0  0  0  0  0  0  0999 V2000
    9.3959   -2.9679    0.0000 O   0  0  0  0  0  0  0  0  0  0  0  0
   10.1089   -2.5529    0.0000 C   0  0  0  0  0  0  0  0  0  0  0  0
   10.1089   -1.7312    0.0000 C   0  0  0  0  0  0  0  0  0  0  0  0
   10.8220   -1.3161    0.0000 C   0  0  0  0  0  0  0  0  0  0  0  0
   11.5351   -1.7312    0.0000 C   0  0  0  0  0  0  0  0  0  0  0  0
   12.2481   -1.3161    0.0000 O   0  0  0  0  0  0  0  0  0  0  0  0
   11.5351   -2.5529    0.0000 C   0  0  0  0  0  0  0  0  0  0  0  0
   12.2481   -2.9679    0.0000 C   0  0  0  0  0  0  0  0  0  0  0  0
   12.9653   -2.5529    0.0000 N   0  0  0  0  0  0  0  0  0  0  0  0
   13.6783   -2.9679    0.0000 C   0  0  0  0  0  0  0  0  0  0  0  0
   14.3914   -2.5529    0.0000 C   0  0  0  0  0  0  0  0  0  0  0  0
   15.1045   -2.9679    0.0000 C   0  0  0  0  0  0  0  0  0  0  0  0
   15.1045   -3.7896    0.0000 C   0  0  0  0  0  0  0  0  0  0  0  0
   14.3914   -4.2047    0.0000 C   0  0  0  0  0  0  0  0  0  0  0  0
   13.6783   -3.7896    0.0000 C   0  0  0  0  0  0  0  0  0  0  0  0
   15.8175   -4.2047    0.0000 C   0  0  0  0  0  0  0  0  0  0  0  0
   15.8175   -5.0265    0.0000 O   0  0  0  0  0  0  0  0  0  0  0  0
   16.5346   -3.7896    0.0000 N   0  0  0  0  0  0  0  0  0  0  0  0
   17.2477   -4.2047    0.0000 C   0  0  0  0  0  0  0  0  0  0  0  0
   17.9608   -3.7896    0.0000 C   0  0  0  0  0  0  0  0  0  0  0  0
   18.6738   -4.2047    0.0000 C   0  0  0  0  0  0  0  0  0  0  0  0
   19.3911   -3.7896    0.0000 C   0  0  0  0  0  0  0  0  0  0  0  0
   20.1040   -4.2047    0.0000 C   0  0  0  0  0  0  0  0  0  0  0  0
   20.1040   -5.0265    0.0000 C   0  0  0  0  0  0  0  0  0  0  0  0
   19.3911   -5.4415    0.0000 C   0  0  0  0  0  0  0  0  0  0  0  0
   18.6738   -5.0265    0.0000 C   0  0  0  0  0  0  0  0  0  0  0  0
   10.8220   -2.9679    0.0000 C   0  0  0  0  0  0  0  0  0  0  0  0
  1  2  1  0  0  0  0 
  2  3  1  0  0  0  0 
  3  4  2  0  0  0  0 
  4  5  1  0  0  0  0 
  5  6  1  0  0  0  0 
  5  7  2  0  0  0  0 
  7  8  1  0  0  0  0 
  8  9  1  0  0  0  0 
  9 10  1  0  0  0  0 
 10 11  2  0  0  0  0 
 11 12  1  0  0  0  0 
 12 13  2  0  0  0  0 
 13 14  1  0  0  0  0 
 14 15  2  0  0  0  0 
 10 15  1  0  0  0  0 
 13 16  1  0  0  0  0 
 16 17  2  0  0  0  0 
 16 18  1  0  0  0  0 
 18 19  1  0  0  0  0 
 19 20  1  0  0  0  0 
 20 21  1  0  0  0  0 
 21 22  2  0  0  0  0 
 22 23  1  0  0  0  0 
 23 24  2  0  0  0  0 
 24 25  1  0  0  0  0 
 25 26  2  0  0  0  0 
 21 26  1  0  0  0  0 
  7 27  1  0  0  0  0 
  2 27  2  0  0  0  0 
M  END

>  <pIC50>
5.30102999566

$$$$

  SciTegic12111210002D

 37 41  0  0  0  0            999 V2000
    6.9208   -3.0042    0.0000 C   0  0
    7.5250   -2.6417    0.0000 N   0  0
    3.2167   -3.0417    0.0000 C   0  0
    5.6875   -3.0167    0.0000 C   0  0
    6.3000   -2.6542    0.0000 N   0  0
    3.8292   -2.6792    0.0000 N   0  0
    8.1417   -2.9833    0.0000 C   0  0
    0.1292   -2.0000    0.0000 N   0  0
    5.0667   -2.6667    0.0000 C   0  0
   -1.1083   -2.6917    0.0000 N   0  0
    6.9250   -3.7167    0.0000 N   0  0
    2.6000   -2.6917    0.0000 C   0  0
    4.4542   -3.0292    0.0000 C   0  0
    8.7542   -2.6125    0.0000 C   0  0
    5.6917   -3.7292    0.0000 C   0  0
    3.2250   -3.7500    0.0000 O   0  0
    9.3458   -1.5375    0.0000 N   0  0
    0.7417   -1.6417    0.0000 C   0  0
    2.6000   -1.9792    0.0000 C   0  0
    1.9875   -3.0500    0.0000 C   0  0
    5.0667   -4.0917    0.0000 C   0  0
    0.1167   -2.7167    0.0000 C   0  0
   -0.4708   -1.6417    0.0000 C   0  0
   -0.5000   -3.0542    0.0000 C   0  0
   -1.1000   -1.9792    0.0000 C   0  0
    8.1583   -3.6958    0.0000 C   0  0
    7.5458   -4.0625    0.0000 C   0  0
    1.3667   -1.9917    0.0000 C   0  0
    4.4542   -3.7417    0.0000 C   0  0
    1.9667   -1.6292    0.0000 C   0  0
    1.3750   -2.7042    0.0000 C   0  0
    8.7417   -1.9083    0.0000 C   0  0
   -1.7375   -3.0292    0.0000 C   0  0
    9.3750   -2.9625    0.0000 C   0  0
    9.9750   -1.8833    0.0000 C   0  0
    6.3042   -4.0875    0.0000 C   0  0
    9.9917   -2.5958    0.0000 C   0  0
  2  1  1  0
  3  6  1  0
  4  5  1  0
  5  1  1  0
  6 13  1  0
  7  2  2  0
  8 18  1  0
  9  4  1  0
 10 25  1  0
 11  1  2  0
 12  3  1  0
 13  9  2  0
 14  7  1  0
 15  4  2  0
 16  3  2  0
 17 32  2  0
 18 28  1  0
 19 12  2  0
 20 12  1  0
 21 15  1  0
 22  8  1  0
 23  8  1  0
 24 22  1  0
 25 23  1  0
 26  7  1  0
 27 11  1  0
 28 31  1  0
 29 21  2  0
 30 19  1  0
 31 20  2  0
 32 14  1  0
 33 10  1  0
 34 14  2  0
 35 37  2  0
 36 15  1  0
 37 34  1  0
 27 26  2  0
 29 13  1  0
 17 35  1  0
 28 30  2  0
 24 10  1  0
M  END

>  <pIC50>
5.30102999566

$$$$

  Mrv0541 04051115152D          

 28 31  0  0  0  0            999 V2000
   -1.4377    0.3018    0.0000 N   0  0  0  0  0  0  0  0  0  0  0  0
   -1.4377   -0.5232    0.0000 N   0  0  0  0  0  0  0  0  0  0  0  0
   -0.7233    0.7143    0.0000 C   0  0  0  0  0  0  0  0  0  0  0  0
   -0.7233   -0.9357    0.0000 C   0  0  0  0  0  0  0  0  0  0  0  0
   -0.0088   -0.5232    0.0000 C   0  0  0  0  0  0  0  0  0  0  0  0
   -0.0088    0.3018    0.0000 C   0  0  0  0  0  0  0  0  0  0  0  0
   -1.4377    1.9518    0.0000 C   0  0  0  0  0  0  0  0  0  0  0  0
   -0.7233    1.5393    0.0000 N   0  0  0  0  0  0  0  0  0  0  0  0
   -1.5240    2.7723    0.0000 C   0  0  0  0  0  0  0  0  0  0  0  0
   -2.7434    2.2294    0.0000 N   0  0  0  0  0  0  0  0  0  0  0  0
   -2.1914    1.6163    0.0000 N   0  0  0  0  0  0  0  0  0  0  0  0
    2.1346   -0.9357    0.0000 N   0  0  0  0  0  0  0  0  0  0  0  0
    0.7057   -0.9357    0.0000 C   0  0  0  0  0  0  0  0  0  0  0  0
    1.4202   -0.5232    0.0000 C   0  0  0  0  0  0  0  0  0  0  0  0
   -2.3309    2.9439    0.0000 C   0  0  0  0  0  0  0  0  0  0  0  0
    0.7057    0.7143    0.0000 C   0  0  0  0  0  0  0  0  0  0  0  0
    3.5636   -1.7607    0.0000 N   0  0  0  0  0  0  0  0  0  0  0  0
   -0.7233   -1.7607    0.0000 O   0  0  0  0  0  0  0  0  0  0  0  0
   -2.1522   -0.9357    0.0000 C   0  0  0  0  0  0  0  0  0  0  0  0
    1.4202    0.3018    0.0000 C   0  0  0  0  0  0  0  0  0  0  0  0
    2.8491   -0.5232    0.0000 C   0  0  0  0  0  0  0  0  0  0  0  0
    2.1346   -1.7607    0.0000 C   0  0  0  0  0  0  0  0  0  0  0  0
    2.8491   -2.1732    0.0000 C   0  0  0  0  0  0  0  0  0  0  0  0
    3.5636   -0.9357    0.0000 C   0  0  0  0  0  0  0  0  0  0  0  0
    4.2780   -2.1732    0.0000 C   0  0  0  0  0  0  0  0  0  0  0  0
   -2.6665    3.6975    0.0000 C   0  0  0  0  0  0  0  0  0  0  0  0
   -2.1522   -1.7607    0.0000 C   0  0  0  0  0  0  0  0  0  0  0  0
   -2.8667   -0.5232    0.0000 C   0  0  0  0  0  0  0  0  0  0  0  0
  3  1  2  0  0  0  0
  1  2  1  0  0  0  0
  4  2  1  0  0  0  0
 19  2  1  0  0  0  0
  3  6  1  0  0  0  0
  3  8  1  0  0  0  0
  4  5  1  0  0  0  0
  4 18  2  0  0  0  0
 13  5  2  0  0  0  0
  5  6  1  0  0  0  0
 16  6  2  0  0  0  0
  7  8  1  0  0  0  0
  7 11  2  0  0  0  0
  7  9  1  0  0  0  0
 15  9  2  0  0  0  0
 10 11  1  0  0  0  0
 15 10  1  0  0  0  0
 22 12  1  0  0  0  0
 21 12  1  0  0  0  0
 14 12  1  0  0  0  0
 13 14  1  0  0  0  0
 14 20  2  0  0  0  0
 15 26  1  0  0  0  0
 16 20  1  0  0  0  0
 25 17  1  0  0  0  0
 23 17  1  0  0  0  0
 24 17  1  0  0  0  0
 19 27  1  0  0  0  0
 19 28  1  0  0  0  0
 21 24  1  0  0  0  0
 22 23  1  0  0  0  0
M  END

>  <pIC50>
5.27083521031

$$$$

  CDK    9/16/09,10:7

 25 27  0  0  0  0  0  0  0  0999 V2000
    0.8692  -12.0581    0.0000 C   0  0  0  0  0  0  0  0  0  0  0  0
    0.8597  -12.8825    0.0000 C   0  0  0  0  0  0  0  0  0  0  0  0
    1.5718  -13.3040    0.0000 C   0  0  0  0  0  0  0  0  0  0  0  0
    0.1415  -13.2877    0.0000 N   0  0  0  0  0  0  0  0  0  0  0  0
    0.1319  -14.1122    0.0000 N   0  0  0  0  0  0  0  0  0  0  0  0
   -0.5883  -14.5209    0.0000 C   0  0  0  0  0  0  0  0  0  0  0  0
   -0.5980  -15.3454    0.0000 N   0  0  0  0  0  0  0  0  0  0  0  0
    0.1142  -15.7669    0.0000 C   0  0  0  0  0  0  0  0  0  0  0  0
    0.8708  -15.4382    0.0000 C   0  0  0  0  0  0  0  0  0  0  0  0
    1.4140  -16.0578    0.0000 C   0  0  0  0  0  0  0  0  0  0  0  0
    2.2377  -15.9783    0.0000 C   0  0  0  0  0  0  0  0  0  0  0  0
    0.9947  -16.7664    0.0000 N   0  0  0  0  0  0  0  0  0  0  0  0
    0.1901  -16.5884    0.0000 N   0  0  0  0  0  0  0  0  0  0  0  0
   -1.3005  -14.0995    0.0000 C   0  0  0  0  0  0  0  0  0  0  0  0
   -2.0186  -14.5046    0.0000 C   0  0  0  0  0  0  0  0  0  0  0  0
   -2.7308  -14.0831    0.0000 C   0  0  0  0  0  0  0  0  0  0  0  0
   -2.7211  -13.2587    0.0000 C   0  0  0  0  0  0  0  0  0  0  0  0
   -3.4333  -12.8372    0.0000 N   0  0  0  0  0  0  0  0  0  0  0  0
   -4.1514  -13.2423    0.0000 C   0  0  0  0  0  0  0  0  0  0  0  0
   -4.1610  -14.0668    0.0000 O   0  0  0  0  0  0  0  0  0  0  0  0
   -4.8635  -12.8209    0.0000 C   0  0  0  0  0  0  0  0  0  0  0  0
   -2.0030  -12.8535    0.0000 C   0  0  0  0  0  0  0  0  0  0  0  0
   -1.2909  -13.2749    0.0000 C   0  0  0  0  0  0  0  0  0  0  0  0
   -0.5706  -12.8663    0.0000 C   0  0  0  0  0  0  0  0  0  0  0  0
   -0.5610  -12.0417    0.0000 O   0  0  0  0  0  0  0  0  0  0  0  0
  1  2  1  0  0  0  0 
  2  3  1  0  0  0  0 
  2  4  1  0  0  0  0 
  4  5  1  0  0  0  0 
  5  6  2  0  0  0  0 
  6  7  1  0  0  0  0 
  7  8  1  0  0  0  0 
  8  9  1  0  0  0  0 
  9 10  2  0  0  0  0 
 10 11  1  0  0  0  0 
 10 12  1  0  0  0  0 
 12 13  1  0  0  0  0 
  8 13  2  0  0  0  0 
  6 14  1  0  0  0  0 
 14 15  1  0  0  0  0 
 15 16  2  0  0  0  0 
 16 17  1  0  0  0  0 
 17 18  1  0  0  0  0 
 18 19  1  0  0  0  0 
 19 20  2  0  0  0  0 
 19 21  1  0  0  0  0 
 17 22  2  0  0  0  0 
 22 23  1  0  0  0  0 
 14 23  2  0  0  0  0 
 23 24  1  0  0  0  0 
  4 24  1  0  0  0  0 
 24 25  2  0  0  0  0 
M  END

>  <pIC50>
5.25026368443

$$$$

  CDK    9/16/09,10:7

 27 30  0  0  0  0  0  0  0  0999 V2000
    3.6991  -17.2140    0.0000 C   0  0  0  0  0  0  0  0  0  0  0  0
    3.6991  -16.3890    0.0000 N   0  0  0  0  0  0  0  0  0  0  0  0
    2.9869  -15.9785    0.0000 C   0  0  0  0  0  0  0  0  0  0  0  0
    4.4115  -15.9785    0.0000 C   0  0  0  0  0  0  0  0  0  0  0  0
    4.4115  -15.1534    0.0000 C   0  0  0  0  0  0  0  0  0  0  0  0
    5.1238  -14.7429    0.0000 C   0  0  0  0  0  0  0  0  0  0  0  0
    5.8403  -15.1534    0.0000 C   0  0  0  0  0  0  0  0  0  0  0  0
    5.8403  -15.9785    0.0000 C   0  0  0  0  0  0  0  0  0  0  0  0
    5.1238  -16.3890    0.0000 C   0  0  0  0  0  0  0  0  0  0  0  0
    6.5526  -14.7429    0.0000 C   0  0  0  0  0  0  0  0  0  0  0  0
    6.5526  -13.9178    0.0000 C   0  0  0  0  0  0  0  0  0  0  0  0
    7.2649  -13.5074    0.0000 C   0  0  0  0  0  0  0  0  0  0  0  0
    7.2649  -12.6824    0.0000 N   0  0  0  0  0  0  0  0  0  0  0  0
    7.9773  -12.2719    0.0000 C   0  0  0  0  0  0  0  0  0  0  0  0
    8.6937  -12.6824    0.0000 C   0  0  0  0  0  0  0  0  0  0  0  0
    8.6937  -13.5074    0.0000 C   0  0  0  0  0  0  0  0  0  0  0  0
    7.9773  -13.9178    0.0000 C   0  0  0  0  0  0  0  0  0  0  0  0
    7.9773  -14.7429    0.0000 C   0  0  0  0  0  0  0  0  0  0  0  0
    8.6937  -15.1534    0.0000 N   0  0  0  0  0  0  0  0  0  0  0  0
    9.4061  -14.7429    0.0000 C   0  0  0  0  0  0  0  0  0  0  0  0
   10.1184  -15.1534    0.0000 C   0  0  0  0  0  0  0  0  0  0  0  0
   10.8307  -14.7429    0.0000 C   0  0  0  0  0  0  0  0  0  0  0  0
   11.5430  -15.1534    0.0000 C   0  0  0  0  0  0  0  0  0  0  0  0
   11.5430  -15.9785    0.0000 C   0  0  0  0  0  0  0  0  0  0  0  0
   10.8307  -16.3890    0.0000 C   0  0  0  0  0  0  0  0  0  0  0  0
   10.1184  -15.9785    0.0000 C   0  0  0  0  0  0  0  0  0  0  0  0
    7.2649  -15.1534    0.0000 N   0  0  0  0  0  0  0  0  0  0  0  0
  1  2  1  0  0  0  0 
  2  3  1  0  0  0  0 
  2  4  1  0  0  0  0 
  4  5  1  0  0  0  0 
  5  6  2  0  0  0  0 
  6  7  1  0  0  0  0 
  7  8  2  0  0  0  0 
  8  9  1  0  0  0  0 
  4  9  2  0  0  0  0 
  7 10  1  0  0  0  0 
 10 11  1  0  0  0  0 
 11 12  2  0  0  0  0 
 12 13  1  0  0  0  0 
 13 14  2  0  0  0  0 
 14 15  1  0  0  0  0 
 15 16  2  0  0  0  0 
 16 17  1  0  0  0  0 
 12 17  1  0  0  0  0 
 17 18  2  0  0  0  0 
 18 19  1  0  0  0  0 
 19 20  1  0  0  0  0 
 20 21  1  0  0  0  0 
 21 22  1  0  0  0  0 
 22 23  1  0  0  0  0 
 23 24  1  0  0  0  0 
 24 25  1  0  0  0  0 
 25 26  1  0  0  0  0 
 21 26  1  0  0  0  0 
 18 27  1  0  0  0  0 
 10 27  2  0  0  0  0 
M  END

>  <pIC50>
5.22914798836

$$$$

  CDK    9/16/09,10:7

 25 28  0  0  0  0  0  0  0  0999 V2000
    0.4206  -18.8669    0.0000 C   0  0  0  0  0  0  0  0  0  0  0  0
   -0.4003  -18.7823    0.0000 C   0  0  0  0  0  0  0  0  0  0  0  0
   -0.9565  -19.3976    0.0000 C   0  0  0  0  0  0  0  0  0  0  0  0
   -1.7095  -19.0606    0.0000 C   0  0  0  0  0  0  0  0  0  0  0  0
   -2.4241  -19.4723    0.0000 N   0  0  0  0  0  0  0  0  0  0  0  0
   -2.4241  -20.3000    0.0000 C   0  0  0  0  0  0  0  0  0  0  0  0
   -1.7095  -20.7118    0.0000 N   0  0  0  0  0  0  0  0  0  0  0  0
   -1.7095  -21.5394    0.0000 N   0  0  0  0  0  0  0  0  0  0  0  0
   -0.9908  -21.9511    0.0000 C   0  0  0  0  0  0  0  0  0  0  0  0
   -0.2762  -21.5394    0.0000 C   0  0  0  0  0  0  0  0  0  0  0  0
   -0.2762  -20.7118    0.0000 C   0  0  0  0  0  0  0  0  0  0  0  0
    0.4383  -20.3000    0.0000 C   0  0  0  0  0  0  0  0  0  0  0  0
    1.1529  -20.7118    0.0000 C   0  0  0  0  0  0  0  0  0  0  0  0
    1.1529  -21.5394    0.0000 N   0  0  0  0  0  0  0  0  0  0  0  0
    0.4383  -21.9511    0.0000 C   0  0  0  0  0  0  0  0  0  0  0  0
   -2.4241  -21.9511    0.0000 C   0  0  0  0  0  0  0  0  0  0  0  0
   -2.4241  -22.7788    0.0000 O   0  0  0  0  0  0  0  0  0  0  0  0
   -3.1387  -21.5394    0.0000 C   0  0  0  0  0  0  0  0  0  0  0  0
   -3.8574  -21.9511    0.0000 C   0  0  0  0  0  0  0  0  0  0  0  0
   -4.5720  -21.5394    0.0000 C   0  0  0  0  0  0  0  0  0  0  0  0
   -4.5720  -20.7118    0.0000 C   0  0  0  0  0  0  0  0  0  0  0  0
   -3.8574  -20.3000    0.0000 C   0  0  0  0  0  0  0  0  0  0  0  0
   -3.1387  -20.7118    0.0000 C   0  0  0  0  0  0  0  0  0  0  0  0
   -1.6207  -18.2398    0.0000 N   0  0  0  0  0  0  0  0  0  0  0  0
   -0.8120  -18.0677    0.0000 N   0  0  0  0  0  0  0  0  0  0  0  0
  1  2  1  0  0  0  0 
  2  3  1  0  0  0  0 
  3  4  2  0  0  0  0 
  4  5  1  0  0  0  0 
  5  6  1  0  0  0  0 
  6  7  2  0  0  0  0 
  7  8  1  0  0  0  0 
  8  9  1  0  0  0  0 
  9 10  1  0  0  0  0 
 10 11  1  0  0  0  0 
 11 12  1  0  0  0  0 
 12 13  1  0  0  0  0 
 13 14  1  0  0  0  0 
 14 15  1  0  0  0  0 
 10 15  1  0  0  0  0 
  8 16  1  0  0  0  0 
 16 17  2  0  0  0  0 
 16 18  1  0  0  0  0 
 18 19  1  0  0  0  0 
 19 20  2  0  0  0  0 
 20 21  1  0  0  0  0 
 21 22  2  0  0  0  0 
 22 23  1  0  0  0  0 
  6 23  1  0  0  0  0 
 18 23  2  0  0  0  0 
  4 24  1  0  0  0  0 
 24 25  1  0  0  0  0 
  2 25  2  0  0  0  0 
M  END

>  <pIC50>
5.18508681872

$$$$

  CDK    9/16/09,10:7

 22 24  0  0  0  0  0  0  0  0999 V2000
    6.9765  -18.9591    0.0000 C   0  0  0  0  0  0  0  0  0  0  0  0
    6.1515  -18.9591    0.0000 C   0  0  0  0  0  0  0  0  0  0  0  0
    5.7390  -18.2474    0.0000 C   0  0  0  0  0  0  0  0  0  0  0  0
    5.7390  -19.6750    0.0000 N   0  0  0  0  0  0  0  0  0  0  0  0
    6.1515  -20.3908    0.0000 N   0  0  0  0  0  0  0  0  0  0  0  0
    5.7390  -21.1067    0.0000 C   0  0  0  0  0  0  0  0  0  0  0  0
    6.1515  -21.8184    0.0000 N   0  0  0  0  0  0  0  0  0  0  0  0
    6.9765  -21.8184    0.0000 C   0  0  0  0  0  0  0  0  0  0  0  0
    7.4613  -21.1530    0.0000 C   0  0  0  0  0  0  0  0  0  0  0  0
    8.2459  -21.4059    0.0000 C   0  0  0  0  0  0  0  0  0  0  0  0
    8.9155  -20.9212    0.0000 C   0  0  0  0  0  0  0  0  0  0  0  0
    8.2459  -22.2309    0.0000 N   0  0  0  0  0  0  0  0  0  0  0  0
    7.4613  -22.4880    0.0000 N   0  0  0  0  0  0  0  0  0  0  0  0
    4.9140  -21.1067    0.0000 C   0  0  0  0  0  0  0  0  0  0  0  0
    4.5015  -21.8184    0.0000 C   0  0  0  0  0  0  0  0  0  0  0  0
    3.6765  -21.8184    0.0000 C   0  0  0  0  0  0  0  0  0  0  0  0
    3.2640  -21.1067    0.0000 C   0  0  0  0  0  0  0  0  0  0  0  0
    2.4390  -21.1067    0.0000 F   0  0  0  0  0  0  0  0  0  0  0  0
    3.6765  -20.3908    0.0000 C   0  0  0  0  0  0  0  0  0  0  0  0
    4.5015  -20.3908    0.0000 C   0  0  0  0  0  0  0  0  0  0  0  0
    4.9140  -19.6750    0.0000 C   0  0  0  0  0  0  0  0  0  0  0  0
    4.5015  -18.9591    0.0000 O   0  0  0  0  0  0  0  0  0  0  0  0
  1  2  1  0  0  0  0 
  2  3  1  0  0  0  0 
  2  4  1  0  0  0  0 
  4  5  1  0  0  0  0 
  5  6  2  0  0  0  0 
  6  7  1  0  0  0  0 
  7  8  1  0  0  0  0 
  8  9  1  0  0  0  0 
  9 10  2  0  0  0  0 
 10 11  1  0  0  0  0 
 10 12  1  0  0  0  0 
 12 13  1  0  0  0  0 
  8 13  2  0  0  0  0 
  6 14  1  0  0  0  0 
 14 15  1  0  0  0  0 
 15 16  2  0  0  0  0 
 16 17  1  0  0  0  0 
 17 18  1  0  0  0  0 
 17 19  2  0  0  0  0 
 19 20  1  0  0  0  0 
 14 20  2  0  0  0  0 
 20 21  1  0  0  0  0 
  4 21  1  0  0  0  0 
 21 22  2  0  0  0  0 
M  END

>  <pIC50>
5.11861534323

$$$$

  CDK    9/16/09,10:7

 27 30  0  0  0  0  0  0  0  0999 V2000
   14.7102  -18.1462    0.0000 C   0  0  0  0  0  0  0  0  0  0  0  0
   13.8850  -18.0615    0.0000 C   0  0  0  0  0  0  0  0  0  0  0  0
   13.3327  -18.6729    0.0000 C   0  0  0  0  0  0  0  0  0  0  0  0
   12.5794  -18.3399    0.0000 C   0  0  0  0  0  0  0  0  0  0  0  0
   11.8647  -18.7518    0.0000 N   0  0  0  0  0  0  0  0  0  0  0  0
   11.8647  -19.5797    0.0000 C   0  0  0  0  0  0  0  0  0  0  0  0
   12.5794  -19.9916    0.0000 N   0  0  0  0  0  0  0  0  0  0  0  0
   12.5794  -20.8196    0.0000 N   0  0  0  0  0  0  0  0  0  0  0  0
   13.2943  -21.2314    0.0000 C   0  0  0  0  0  0  0  0  0  0  0  0
   14.0090  -20.8196    0.0000 C   0  0  0  0  0  0  0  0  0  0  0  0
   14.0090  -19.9916    0.0000 O   0  0  0  0  0  0  0  0  0  0  0  0
   14.7238  -21.2314    0.0000 C   0  0  0  0  0  0  0  0  0  0  0  0
   14.7238  -22.0593    0.0000 C   0  0  0  0  0  0  0  0  0  0  0  0
   15.4427  -22.4712    0.0000 C   0  0  0  0  0  0  0  0  0  0  0  0
   16.1576  -22.0593    0.0000 C   0  0  0  0  0  0  0  0  0  0  0  0
   16.1576  -21.2314    0.0000 C   0  0  0  0  0  0  0  0  0  0  0  0
   15.4427  -20.8196    0.0000 C   0  0  0  0  0  0  0  0  0  0  0  0
   11.8647  -21.2314    0.0000 C   0  0  0  0  0  0  0  0  0  0  0  0
   11.8647  -22.0593    0.0000 O   0  0  0  0  0  0  0  0  0  0  0  0
   11.1499  -20.8196    0.0000 C   0  0  0  0  0  0  0  0  0  0  0  0
   10.4309  -21.2314    0.0000 C   0  0  0  0  0  0  0  0  0  0  0  0
    9.7161  -20.8196    0.0000 C   0  0  0  0  0  0  0  0  0  0  0  0
    9.7161  -19.9916    0.0000 C   0  0  0  0  0  0  0  0  0  0  0  0
   10.4309  -19.5797    0.0000 C   0  0  0  0  0  0  0  0  0  0  0  0
   11.1499  -19.9916    0.0000 C   0  0  0  0  0  0  0  0  0  0  0  0
   12.6641  -17.5188    0.0000 N   0  0  0  0  0  0  0  0  0  0  0  0
   13.4731  -17.3467    0.0000 N   0  0  0  0  0  0  0  0  0  0  0  0
  1  2  1  0  0  0  0 
  2  3  2  0  0  0  0 
  3  4  1  0  0  0  0 
  4  5  1  0  0  0  0 
  5  6  1  0  0  0  0 
  6  7  2  0  0  0  0 
  7  8  1  0  0  0  0 
  8  9  1  0  0  0  0 
  9 10  1  0  0  0  0 
 10 11  2  0  0  0  0 
 10 12  1  0  0  0  0 
 12 13  1  0  0  0  0 
 13 14  2  0  0  0  0 
 14 15  1  0  0  0  0 
 15 16  2  0  0  0  0 
 16 17  1  0  0  0  0 
 12 17  2  0  0  0  0 
  8 18  1  0  0  0  0 
 18 19  2  0  0  0  0 
 18 20  1  0  0  0  0 
 20 21  1  0  0  0  0 
 21 22  2  0  0  0  0 
 22 23  1  0  0  0  0 
 23 24  2  0  0  0  0 
 24 25  1  0  0  0  0 
  6 25  1  0  0  0  0 
 20 25  2  0  0  0  0 
  4 26  2  0  0  0  0 
 26 27  1  0  0  0  0 
  2 27  1  0  0  0  0 
M  END

>  <pIC50>
5.11548784081

$$$$

  CDK    9/16/09,10:7

 28 31  0  0  0  0  0  0  0  0999 V2000
   -2.7459   -4.9830    0.0000 C   0  0  0  0  0  0  0  0  0  0  0  0
   -2.0314   -5.3946    0.0000 C   0  0  0  0  0  0  0  0  0  0  0  0
   -2.0314   -6.2222    0.0000 C   0  0  0  0  0  0  0  0  0  0  0  0
   -1.3170   -4.9830    0.0000 N   0  0  0  0  0  0  0  0  0  0  0  0
   -1.3170   -4.1554    0.0000 N   0  0  0  0  0  0  0  0  0  0  0  0
   -0.6026   -3.7438    0.0000 C   0  0  0  0  0  0  0  0  0  0  0  0
   -0.6026   -2.9163    0.0000 N   0  0  0  0  0  0  0  0  0  0  0  0
   -1.3170   -2.5047    0.0000 C   0  0  0  0  0  0  0  0  0  0  0  0
   -2.0699   -2.8416    0.0000 C   0  0  0  0  0  0  0  0  0  0  0  0
   -2.6219   -2.2263    0.0000 C   0  0  0  0  0  0  0  0  0  0  0  0
   -3.4468   -2.3110    0.0000 C   0  0  0  0  0  0  0  0  0  0  0  0
   -2.2103   -1.5120    0.0000 N   0  0  0  0  0  0  0  0  0  0  0  0
   -1.4017   -1.6840    0.0000 N   0  0  0  0  0  0  0  0  0  0  0  0
    0.1160   -4.1554    0.0000 C   0  0  0  0  0  0  0  0  0  0  0  0
    0.8304   -3.7438    0.0000 C   0  0  0  0  0  0  0  0  0  0  0  0
    1.5449   -4.1554    0.0000 C   0  0  0  0  0  0  0  0  0  0  0  0
    1.5449   -4.9830    0.0000 C   0  0  0  0  0  0  0  0  0  0  0  0
    0.8304   -5.3946    0.0000 C   0  0  0  0  0  0  0  0  0  0  0  0
    0.1160   -4.9830    0.0000 C   0  0  0  0  0  0  0  0  0  0  0  0
   -0.6026   -5.3946    0.0000 C   0  0  0  0  0  0  0  0  0  0  0  0
   -0.6026   -6.2222    0.0000 O   0  0  0  0  0  0  0  0  0  0  0  0
    2.2593   -5.3946    0.0000 C   0  0  0  0  0  0  0  0  0  0  0  0
    2.2593   -6.2222    0.0000 O   0  0  0  0  0  0  0  0  0  0  0  0
    2.9779   -4.9830    0.0000 O   0  0  0  0  0  0  0  0  0  0  0  0
    3.6923   -5.3946    0.0000 C   0  0  0  0  0  0  0  0  0  0  0  0
    4.4067   -4.9830    0.0000 C   0  0  0  0  0  0  0  0  0  0  0  0
    4.8226   -4.2685    0.0000 C   0  0  0  0  0  0  0  0  0  0  0  0
    5.2343   -4.9830    0.0000 C   0  0  0  0  0  0  0  0  0  0  0  0
  1  2  1  0  0  0  0 
  2  3  1  0  0  0  0 
  2  4  1  0  0  0  0 
  4  5  1  0  0  0  0 
  5  6  2  0  0  0  0 
  6  7  1  0  0  0  0 
  7  8  1  0  0  0  0 
  8  9  1  0  0  0  0 
  9 10  2  0  0  0  0 
 10 11  1  0  0  0  0 
 10 12  1  0  0  0  0 
 12 13  1  0  0  0  0 
  8 13  2  0  0  0  0 
  6 14  1  0  0  0  0 
 14 15  1  0  0  0  0 
 15 16  2  0  0  0  0 
 16 17  1  0  0  0  0 
 17 18  2  0  0  0  0 
 18 19  1  0  0  0  0 
 14 19  2  0  0  0  0 
 19 20  1  0  0  0  0 
  4 20  1  0  0  0  0 
 20 21  2  0  0  0  0 
 17 22  1  0  0  0  0 
 22 23  2  0  0  0  0 
 22 24  1  0  0  0  0 
 24 25  1  0  0  0  0 
 25 26  1  0  0  0  0 
 26 27  1  0  0  0  0 
 27 28  1  0  0  0  0 
 26 28  1  0  0  0  0 
M  END

>  <pIC50>
5.00043451177

$$$$

  CDK    9/16/09,10:7

 27 28  0  0  0  0  0  0  0  0999 V2000
    7.2616   -7.7868    0.0000 C   0  0  0  0  0  0  0  0  0  0  0  0
    7.2707   -6.9646    0.0000 N   0  0  0  0  0  0  0  0  0  0  0  0
    6.5619   -6.5409    0.0000 C   0  0  0  0  0  0  0  0  0  0  0  0
    7.9901   -6.5606    0.0000 C   0  0  0  0  0  0  0  0  0  0  0  0
    7.9973   -5.7349    0.0000 C   0  0  0  0  0  0  0  0  0  0  0  0
    7.2905   -5.3147    0.0000 N   0  0  0  0  0  0  0  0  0  0  0  0
    6.5711   -5.7188    0.0000 C   0  0  0  0  0  0  0  0  0  0  0  0
    7.2997   -4.4927    0.0000 C   0  0  0  0  0  0  0  0  0  0  0  0
    6.5930   -4.0725    0.0000 N   0  0  0  0  0  0  0  0  0  0  0  0
    6.6020   -3.2504    0.0000 C   0  0  0  0  0  0  0  0  0  0  0  0
    7.3215   -2.8464    0.0000 C   0  0  0  0  0  0  0  0  0  0  0  0
    7.3286   -2.0207    0.0000 C   0  0  0  0  0  0  0  0  0  0  0  0
    8.0480   -1.6166    0.0000 O   0  0  0  0  0  0  0  0  0  0  0  0
    6.6219   -1.6005    0.0000 N   0  0  0  0  0  0  0  0  0  0  0  0
    8.0282   -3.2665    0.0000 C   0  0  0  0  0  0  0  0  0  0  0  0
    8.7477   -2.8625    0.0000 N   0  0  0  0  0  0  0  0  0  0  0  0
    9.4544   -3.2827    0.0000 C   0  0  0  0  0  0  0  0  0  0  0  0
    9.4452   -4.1048    0.0000 C   0  0  0  0  0  0  0  0  0  0  0  0
   10.1519   -4.5249    0.0000 C   0  0  0  0  0  0  0  0  0  0  0  0
   10.8713   -4.1210    0.0000 C   0  0  0  0  0  0  0  0  0  0  0  0
   10.8805   -3.2989    0.0000 C   0  0  0  0  0  0  0  0  0  0  0  0
   10.1737   -2.8787    0.0000 C   0  0  0  0  0  0  0  0  0  0  0  0
   11.5999   -2.8949    0.0000 C   0  0  0  0  0  0  0  0  0  0  0  0
   12.0039   -3.6143    0.0000 F   0  0  0  0  0  0  0  0  0  0  0  0
   11.1979   -2.1791    0.0000 F   0  0  0  0  0  0  0  0  0  0  0  0
   12.3157   -2.4929    0.0000 F   0  0  0  0  0  0  0  0  0  0  0  0
    8.0190   -4.0887    0.0000 N   0  0  0  0  0  0  0  0  0  0  0  0
  1  2  1  0  0  0  0 
  2  3  1  0  0  0  0 
  2  4  1  0  0  0  0 
  4  5  1  0  0  0  0 
  5  6  1  0  0  0  0 
  6  7  1  0  0  0  0 
  6  8  1  0  0  0  0 
  8  9  2  0  0  0  0 
  9 10  1  0  0  0  0 
 10 11  2  0  0  0  0 
 11 12  1  0  0  0  0 
 12 13  2  0  0  0  0 
 12 14  1  0  0  0  0 
 11 15  1  0  0  0  0 
 15 16  1  0  0  0  0 
 16 17  1  0  0  0  0 
 17 18  2  0  0  0  0 
 18 19  1  0  0  0  0 
 19 20  2  0  0  0  0 
 20 21  1  0  0  0  0 
 21 22  2  0  0  0  0 
 17 22  1  0  0  0  0 
 21 23  1  0  0  0  0 
 23 24  1  0  0  0  0 
 23 25  1  0  0  0  0 
 23 26  1  0  0  0  0 
 15 27  2  0  0  0  0 
  8 27  1  0  0  0  0 
M  END

>  <pIC50>
5.0

$$$$

  CDK    9/16/09,10:7

 28 31  0  0  0  0  0  0  0  0999 V2000
   -3.4255  -11.7528    0.0000 C   0  0  0  0  0  0  0  0  0  0  0  0
   -2.7065  -12.1646    0.0000 N   0  0  0  0  0  0  0  0  0  0  0  0
   -2.7065  -12.9925    0.0000 C   0  0  0  0  0  0  0  0  0  0  0  0
   -1.9917  -11.7528    0.0000 C   0  0  0  0  0  0  0  0  0  0  0  0
   -1.9917  -10.9248    0.0000 C   0  0  0  0  0  0  0  0  0  0  0  0
   -1.2769  -10.5129    0.0000 C   0  0  0  0  0  0  0  0  0  0  0  0
   -0.5622  -10.9248    0.0000 C   0  0  0  0  0  0  0  0  0  0  0  0
   -0.5622  -11.7528    0.0000 C   0  0  0  0  0  0  0  0  0  0  0  0
   -1.2769  -12.1646    0.0000 C   0  0  0  0  0  0  0  0  0  0  0  0
    0.1569  -10.5129    0.0000 C   0  0  0  0  0  0  0  0  0  0  0  0
    0.1569   -9.6850    0.0000 C   0  0  0  0  0  0  0  0  0  0  0  0
    0.8716   -9.2731    0.0000 C   0  0  0  0  0  0  0  0  0  0  0  0
    0.8716   -8.4452    0.0000 N   0  0  0  0  0  0  0  0  0  0  0  0
    1.5864   -8.0333    0.0000 C   0  0  0  0  0  0  0  0  0  0  0  0
    2.3012   -8.4452    0.0000 C   0  0  0  0  0  0  0  0  0  0  0  0
    2.3012   -9.2731    0.0000 C   0  0  0  0  0  0  0  0  0  0  0  0
    1.5864   -9.6850    0.0000 C   0  0  0  0  0  0  0  0  0  0  0  0
    1.5864  -10.5129    0.0000 C   0  0  0  0  0  0  0  0  0  0  0  0
    2.3012  -10.9248    0.0000 N   0  0  0  0  0  0  0  0  0  0  0  0
    3.0202  -10.5129    0.0000 C   0  0  0  0  0  0  0  0  0  0  0  0
    3.7350  -10.9248    0.0000 C   0  0  0  0  0  0  0  0  0  0  0  0
    4.4497  -10.5129    0.0000 C   0  0  0  0  0  0  0  0  0  0  0  0
    5.1646  -10.9248    0.0000 C   0  0  0  0  0  0  0  0  0  0  0  0
    5.1646  -11.7528    0.0000 C   0  0  0  0  0  0  0  0  0  0  0  0
    5.8793  -12.1646    0.0000 N   0  0  0  0  0  0  0  0  0  0  0  0
    4.4497  -12.1646    0.0000 C   0  0  0  0  0  0  0  0  0  0  0  0
    3.7350  -11.7528    0.0000 C   0  0  0  0  0  0  0  0  0  0  0  0
    0.8716  -10.9248    0.0000 N   0  0  0  0  0  0  0  0  0  0  0  0
  1  2  1  0  0  0  0 
  2  3  1  0  0  0  0 
  2  4  1  0  0  0  0 
  4  5  2  0  0  0  0 
  5  6  1  0  0  0  0 
  6  7  2  0  0  0  0 
  7  8  1  0  0  0  0 
  8  9  2  0  0  0  0 
  4  9  1  0  0  0  0 
  7 10  1  0  0  0  0 
 10 11  1  0  0  0  0 
 11 12  2  0  0  0  0 
 12 13  1  0  0  0  0 
 13 14  2  0  0  0  0 
 14 15  1  0  0  0  0 
 15 16  2  0  0  0  0 
 16 17  1  0  0  0  0 
 12 17  1  0  0  0  0 
 17 18  2  0  0  0  0 
 18 19  1  0  0  0  0 
 19 20  1  0  0  0  0 
 20 21  1  0  0  0  0 
 21 22  2  0  0  0  0 
 22 23  1  0  0  0  0 
 23 24  2  0  0  0  0 
 24 25  1  0  0  0  0 
 24 26  1  0  0  0  0 
 26 27  2  0  0  0  0 
 21 27  1  0  0  0  0 
 18 28  1  0  0  0  0 
 10 28  2  0  0  0  0 
M  END

>  <pIC50>
4.88605664769

$$$$

  CDK    9/16/09,10:7

 27 30  0  0  0  0  0  0  0  0999 V2000
   14.4803   -8.7267    0.0000 C   0  0  0  0  0  0  0  0  0  0  0  0
   13.6607   -8.6421    0.0000 C   0  0  0  0  0  0  0  0  0  0  0  0
   13.1053   -9.2566    0.0000 C   0  0  0  0  0  0  0  0  0  0  0  0
   12.3534   -8.9201    0.0000 C   0  0  0  0  0  0  0  0  0  0  0  0
   11.6398   -9.3313    0.0000 N   0  0  0  0  0  0  0  0  0  0  0  0
   11.6398  -10.1577    0.0000 C   0  0  0  0  0  0  0  0  0  0  0  0
   12.3534  -10.5688    0.0000 N   0  0  0  0  0  0  0  0  0  0  0  0
   12.3534  -11.3953    0.0000 N   0  0  0  0  0  0  0  0  0  0  0  0
   13.0669  -11.8065    0.0000 C   0  0  0  0  0  0  0  0  0  0  0  0
   13.7804  -11.3953    0.0000 C   0  0  0  0  0  0  0  0  0  0  0  0
   13.7804  -10.5688    0.0000 C   0  0  0  0  0  0  0  0  0  0  0  0
   14.4981  -10.1577    0.0000 C   0  0  0  0  0  0  0  0  0  0  0  0
   14.4981   -9.3313    0.0000 F   0  0  0  0  0  0  0  0  0  0  0  0
   15.2116  -10.5688    0.0000 C   0  0  0  0  0  0  0  0  0  0  0  0
   15.2116  -11.3953    0.0000 C   0  0  0  0  0  0  0  0  0  0  0  0
   14.4981  -11.8065    0.0000 C   0  0  0  0  0  0  0  0  0  0  0  0
   14.4981  -12.6330    0.0000 F   0  0  0  0  0  0  0  0  0  0  0  0
   11.6398  -11.8065    0.0000 C   0  0  0  0  0  0  0  0  0  0  0  0
   11.6398  -12.6330    0.0000 O   0  0  0  0  0  0  0  0  0  0  0  0
   10.9263  -11.3953    0.0000 C   0  0  0  0  0  0  0  0  0  0  0  0
   10.2086  -11.8065    0.0000 C   0  0  0  0  0  0  0  0  0  0  0  0
    9.4950  -11.3953    0.0000 C   0  0  0  0  0  0  0  0  0  0  0  0
    9.4950  -10.5688    0.0000 C   0  0  0  0  0  0  0  0  0  0  0  0
   10.2086  -10.1577    0.0000 C   0  0  0  0  0  0  0  0  0  0  0  0
   10.9263  -10.5688    0.0000 C   0  0  0  0  0  0  0  0  0  0  0  0
   12.4420   -8.1004    0.0000 N   0  0  0  0  0  0  0  0  0  0  0  0
   13.2455   -7.9287    0.0000 N   0  0  0  0  0  0  0  0  0  0  0  0
  1  2  1  0  0  0  0 
  2  3  2  0  0  0  0 
  3  4  1  0  0  0  0 
  4  5  1  0  0  0  0 
  5  6  1  0  0  0  0 
  6  7  2  0  0  0  0 
  7  8  1  0  0  0  0 
  8  9  1  0  0  0  0 
  9 10  1  0  0  0  0 
 10 11  1  0  0  0  0 
 11 12  2  0  0  0  0 
 12 13  1  0  0  0  0 
 12 14  1  0  0  0  0 
 14 15  2  0  0  0  0 
 15 16  1  0  0  0  0 
 10 16  2  0  0  0  0 
 16 17  1  0  0  0  0 
  8 18  1  0  0  0  0 
 18 19  2  0  0  0  0 
 18 20  1  0  0  0  0 
 20 21  1  0  0  0  0 
 21 22  2  0  0  0  0 
 22 23  1  0  0  0  0 
 23 24  2  0  0  0  0 
 24 25  1  0  0  0  0 
  6 25  1  0  0  0  0 
 20 25  2  0  0  0  0 
  4 26  2  0  0  0  0 
 26 27  1  0  0  0  0 
  2 27  1  0  0  0  0 
M  END

>  <pIC50>
4.64016451766

$$$$

  CDK    9/16/09,10:7

 29 31  0  0  0  0  0  0  0  0999 V2000
    6.1248  -13.6285    0.0000 O   0  0  0  0  0  0  0  0  0  0  0  0
    6.1248  -14.4503    0.0000 C   0  0  0  0  0  0  0  0  0  0  0  0
    6.8378  -14.8653    0.0000 C   0  0  0  0  0  0  0  0  0  0  0  0
    6.8378  -15.6871    0.0000 C   0  0  0  0  0  0  0  0  0  0  0  0
    6.1248  -16.1020    0.0000 C   0  0  0  0  0  0  0  0  0  0  0  0
    6.1248  -16.9238    0.0000 O   0  0  0  0  0  0  0  0  0  0  0  0
    5.4117  -15.6871    0.0000 C   0  0  0  0  0  0  0  0  0  0  0  0
    4.6946  -16.1020    0.0000 C   0  0  0  0  0  0  0  0  0  0  0  0
    3.9815  -15.6871    0.0000 N   0  0  0  0  0  0  0  0  0  0  0  0
    3.2684  -16.1020    0.0000 C   0  0  0  0  0  0  0  0  0  0  0  0
    3.2684  -16.9238    0.0000 C   0  0  0  0  0  0  0  0  0  0  0  0
    2.5554  -17.3389    0.0000 C   0  0  0  0  0  0  0  0  0  0  0  0
    1.8381  -16.9238    0.0000 C   0  0  0  0  0  0  0  0  0  0  0  0
    1.1252  -17.3389    0.0000 O   0  0  0  0  0  0  0  0  0  0  0  0
    1.8381  -16.1020    0.0000 C   0  0  0  0  0  0  0  0  0  0  0  0
    2.5554  -15.6871    0.0000 C   0  0  0  0  0  0  0  0  0  0  0  0
    1.1252  -15.6871    0.0000 C   0  0  0  0  0  0  0  0  0  0  0  0
    1.1252  -14.8653    0.0000 O   0  0  0  0  0  0  0  0  0  0  0  0
    0.4121  -16.1020    0.0000 N   0  0  0  0  0  0  0  0  0  0  0  0
   -0.3010  -15.6871    0.0000 C   0  0  0  0  0  0  0  0  0  0  0  0
   -1.0182  -16.1020    0.0000 C   0  0  0  0  0  0  0  0  0  0  0  0
   -1.7313  -15.6871    0.0000 C   0  0  0  0  0  0  0  0  0  0  0  0
   -2.4443  -16.1020    0.0000 C   0  0  0  0  0  0  0  0  0  0  0  0
   -2.4443  -16.9238    0.0000 C   0  0  0  0  0  0  0  0  0  0  0  0
   -3.1573  -17.3389    0.0000 C   0  0  0  0  0  0  0  0  0  0  0  0
   -3.8745  -16.9238    0.0000 C   0  0  0  0  0  0  0  0  0  0  0  0
   -3.8745  -16.1020    0.0000 C   0  0  0  0  0  0  0  0  0  0  0  0
   -3.1573  -15.6871    0.0000 C   0  0  0  0  0  0  0  0  0  0  0  0
    5.4117  -14.8653    0.0000 C   0  0  0  0  0  0  0  0  0  0  0  0
  1  2  1  0  0  0  0 
  2  3  1  0  0  0  0 
  3  4  2  0  0  0  0 
  4  5  1  0  0  0  0 
  5  6  1  0  0  0  0 
  5  7  2  0  0  0  0 
  7  8  1  0  0  0  0 
  8  9  1  0  0  0  0 
  9 10  1  0  0  0  0 
 10 11  1  0  0  0  0 
 11 12  2  0  0  0  0 
 12 13  1  0  0  0  0 
 13 14  1  0  0  0  0 
 13 15  2  0  0  0  0 
 15 16  1  0  0  0  0 
 10 16  2  0  0  0  0 
 15 17  1  0  0  0  0 
 17 18  2  0  0  0  0 
 17 19  1  0  0  0  0 
 19 20  1  0  0  0  0 
 20 21  1  0  0  0  0 
 21 22  1  0  0  0  0 
 22 23  1  0  0  0  0 
 23 24  2  0  0  0  0 
 24 25  1  0  0  0  0 
 25 26  2  0  0  0  0 
 26 27  1  0  0  0  0 
 27 28  2  0  0  0  0 
 23 28  1  0  0  0  0 
  7 29  1  0  0  0  0 
  2 29  2  0  0  0  0 
M  END

>  <pIC50>
4.55284196866

$$$$

  CDK    9/16/09,10:7

 27 30  0  0  0  0  0  0  0  0999 V2000
   13.9927  -13.9172    0.0000 C   0  0  0  0  0  0  0  0  0  0  0  0
   13.9927  -14.7421    0.0000 C   0  0  0  0  0  0  0  0  0  0  0  0
   14.7048  -15.1567    0.0000 C   0  0  0  0  0  0  0  0  0  0  0  0
   13.2762  -15.1567    0.0000 N   0  0  0  0  0  0  0  0  0  0  0  0
   13.2762  -15.9817    0.0000 N   0  0  0  0  0  0  0  0  0  0  0  0
   12.5640  -16.3921    0.0000 C   0  0  0  0  0  0  0  0  0  0  0  0
   12.5640  -17.2170    0.0000 N   0  0  0  0  0  0  0  0  0  0  0  0
   13.2762  -17.6316    0.0000 C   0  0  0  0  0  0  0  0  0  0  0  0
   14.0310  -17.2916    0.0000 C   0  0  0  0  0  0  0  0  0  0  0  0
   14.5813  -17.9049    0.0000 C   0  0  0  0  0  0  0  0  0  0  0  0
   15.3994  -17.8205    0.0000 C   0  0  0  0  0  0  0  0  0  0  0  0
   14.1709  -18.6213    0.0000 N   0  0  0  0  0  0  0  0  0  0  0  0
   13.3648  -18.4498    0.0000 N   0  0  0  0  0  0  0  0  0  0  0  0
   11.8476  -15.9817    0.0000 C   0  0  0  0  0  0  0  0  0  0  0  0
   11.1312  -16.3921    0.0000 C   0  0  0  0  0  0  0  0  0  0  0  0
   10.4149  -15.9817    0.0000 C   0  0  0  0  0  0  0  0  0  0  0  0
   10.4149  -15.1567    0.0000 C   0  0  0  0  0  0  0  0  0  0  0  0
   11.1312  -14.7421    0.0000 C   0  0  0  0  0  0  0  0  0  0  0  0
   11.8476  -15.1567    0.0000 C   0  0  0  0  0  0  0  0  0  0  0  0
   12.5640  -14.7421    0.0000 C   0  0  0  0  0  0  0  0  0  0  0  0
   12.5640  -13.9172    0.0000 O   0  0  0  0  0  0  0  0  0  0  0  0
    9.7026  -16.3921    0.0000 N   0  0  0  0  0  0  0  0  0  0  0  0
    9.7026  -17.2170    0.0000 C   0  0  0  0  0  0  0  0  0  0  0  0
    8.9903  -17.6316    0.0000 C   0  0  0  0  0  0  0  0  0  0  0  0
    8.2782  -17.2170    0.0000 O   0  0  0  0  0  0  0  0  0  0  0  0
    8.2782  -16.3921    0.0000 C   0  0  0  0  0  0  0  0  0  0  0  0
    8.9903  -15.9817    0.0000 C   0  0  0  0  0  0  0  0  0  0  0  0
  1  2  1  0  0  0  0 
  2  3  1  0  0  0  0 
  2  4  1  0  0  0  0 
  4  5  1  0  0  0  0 
  5  6  2  0  0  0  0 
  6  7  1  0  0  0  0 
  7  8  1  0  0  0  0 
  8  9  1  0  0  0  0 
  9 10  2  0  0  0  0 
 10 11  1  0  0  0  0 
 10 12  1  0  0  0  0 
 12 13  1  0  0  0  0 
  8 13  2  0  0  0  0 
  6 14  1  0  0  0  0 
 14 15  1  0  0  0  0 
 15 16  2  0  0  0  0 
 16 17  1  0  0  0  0 
 17 18  2  0  0  0  0 
 18 19  1  0  0  0  0 
 14 19  2  0  0  0  0 
 19 20  1  0  0  0  0 
  4 20  1  0  0  0  0 
 20 21  2  0  0  0  0 
 16 22  1  0  0  0  0 
 22 23  1  0  0  0  0 
 23 24  1  0  0  0  0 
 24 25  1  0  0  0  0 
 25 26  1  0  0  0  0 
 26 27  1  0  0  0  0 
 22 27  1  0  0  0  0 
M  END

>  <pIC50>
4.43889861635

$$$$

  Mrv0541 04051115152D          

 18 19  0  0  0  0            999 V2000
   -1.4181    2.1660    0.0000 C   0  0  0  0  0  0  0  0  0  0  0  0
   -2.1325    1.7535    0.0000 C   0  0  0  0  0  0  0  0  0  0  0  0
   -2.1325    0.9285    0.0000 C   0  0  0  0  0  0  0  0  0  0  0  0
   -1.4181    0.5160    0.0000 C   0  0  0  0  0  0  0  0  0  0  0  0
   -0.7036    0.9285    0.0000 C   0  0  0  0  0  0  0  0  0  0  0  0
   -0.7036    1.7535    0.0000 C   0  0  0  0  0  0  0  0  0  0  0  0
    0.0109    0.5160    0.0000 C   0  0  0  0  0  0  0  0  0  0  0  0
    0.0109   -0.3090    0.0000 C   0  0  0  0  0  0  0  0  0  0  0  0
    0.7253   -0.7215    0.0000 C   0  0  0  0  0  0  0  0  0  0  0  0
    0.7253   -1.5465    0.0000 C   0  0  0  0  0  0  0  0  0  0  0  0
    1.4398   -1.9590    0.0000 C   0  0  0  0  0  0  0  0  0  0  0  0
    2.1543   -1.5465    0.0000 C   0  0  0  0  0  0  0  0  0  0  0  0
    2.1543   -0.7215    0.0000 C   0  0  0  0  0  0  0  0  0  0  0  0
    1.4398   -0.3090    0.0000 C   0  0  0  0  0  0  0  0  0  0  0  0
    2.8687   -1.9590    0.0000 O   0  0  0  0  0  0  0  0  0  0  0  0
   -2.8470    0.5160    0.0000 O   0  0  0  0  0  0  0  0  0  0  0  0
   -1.4181    2.9910    0.0000 O   0  0  0  0  0  0  0  0  0  0  0  0
    1.4398   -2.7840    0.0000 O   0  0  0  0  0  0  0  0  0  0  0  0
  1  6  1  0  0  0  0
  1  2  2  0  0  0  0
  1 17  1  0  0  0  0
  2  3  1  0  0  0  0
  3 16  1  0  0  0  0
  3  4  2  0  0  0  0
  4  5  1  0  0  0  0
  5  7  1  0  0  0  0
  5  6  2  0  0  0  0
  7  8  2  0  0  0  0
  8  9  1  0  0  0  0
 10  9  1  0  0  0  0
 14  9  2  0  0  0  0
 10 11  2  0  0  0  0
 11 18  1  0  0  0  0
 11 12  1  0  0  0  0
 12 15  1  0  0  0  0
 12 13  2  0  0  0  0
 13 14  1  0  0  0  0
M  END

>  <pIC50>
4.42021640338

$$$$

  CDK    9/16/09,10:7

 20 22  0  0  0  0  0  0  0  0999 V2000
    6.9490  -18.2360    0.0000 C   0  0  0  0  0  0  0  0  0  0  0  0
    6.2412  -18.6661    0.0000 N   0  0  0  0  0  0  0  0  0  0  0  0
    6.2570  -19.4926    0.0000 C   0  0  0  0  0  0  0  0  0  0  0  0
    6.9804  -19.8890    0.0000 N   0  0  0  0  0  0  0  0  0  0  0  0
    6.9981  -20.7118    0.0000 C   0  0  0  0  0  0  0  0  0  0  0  0
    6.2903  -21.1419    0.0000 N   0  0  0  0  0  0  0  0  0  0  0  0
    5.5669  -20.7414    0.0000 C   0  0  0  0  0  0  0  0  0  0  0  0
    4.8612  -21.1679    0.0000 C   0  0  0  0  0  0  0  0  0  0  0  0
    4.1378  -20.7673    0.0000 C   0  0  0  0  0  0  0  0  0  0  0  0
    4.1200  -19.9444    0.0000 C   0  0  0  0  0  0  0  0  0  0  0  0
    4.8277  -19.5185    0.0000 C   0  0  0  0  0  0  0  0  0  0  0  0
    5.5513  -19.9149    0.0000 C   0  0  0  0  0  0  0  0  0  0  0  0
    7.7215  -21.1123    0.0000 C   0  0  0  0  0  0  0  0  0  0  0  0
    8.4272  -20.6860    0.0000 C   0  0  0  0  0  0  0  0  0  0  0  0
    9.1507  -21.0823    0.0000 C   0  0  0  0  0  0  0  0  0  0  0  0
    9.1684  -21.9051    0.0000 C   0  0  0  0  0  0  0  0  0  0  0  0
    9.8877  -22.3057    0.0000 O   0  0  0  0  0  0  0  0  0  0  0  0
    9.9075  -23.1322    0.0000 C   0  0  0  0  0  0  0  0  0  0  0  0
    8.4607  -22.3353    0.0000 C   0  0  0  0  0  0  0  0  0  0  0  0
    7.7373  -21.9389    0.0000 C   0  0  0  0  0  0  0  0  0  0  0  0
  1  2  1  0  0  0  0 
  2  3  1  0  0  0  0 
  3  4  2  0  0  0  0 
  4  5  1  0  0  0  0 
  5  6  2  0  0  0  0 
  6  7  1  0  0  0  0 
  7  8  1  0  0  0  0 
  8  9  2  0  0  0  0 
  9 10  1  0  0  0  0 
 10 11  2  0  0  0  0 
 11 12  1  0  0  0  0 
  3 12  1  0  0  0  0 
  7 12  2  0  0  0  0 
  5 13  1  0  0  0  0 
 13 14  2  0  0  0  0 
 14 15  1  0  0  0  0 
 15 16  2  0  0  0  0 
 16 17  1  0  0  0  0 
 17 18  1  0  0  0  0 
 16 19  1  0  0  0  0 
 19 20  2  0  0  0  0 
 13 20  1  0  0  0  0 
M  END

>  <pIC50>
4.39794000867

$$$$

  CDK    9/16/09,10:7

 22 24  0  0  0  0  0  0  0  0999 V2000
   11.7392  -23.0108    0.0000 C   0  0  0  0  0  0  0  0  0  0  0  0
   12.4522  -23.4218    0.0000 C   0  0  0  0  0  0  0  0  0  0  0  0
   12.4522  -24.2477    0.0000 C   0  0  0  0  0  0  0  0  0  0  0  0
   13.1696  -23.0108    0.0000 N   0  0  0  0  0  0  0  0  0  0  0  0
   13.1696  -22.1848    0.0000 N   0  0  0  0  0  0  0  0  0  0  0  0
   13.8826  -21.7739    0.0000 C   0  0  0  0  0  0  0  0  0  0  0  0
   13.8826  -20.9479    0.0000 N   0  0  0  0  0  0  0  0  0  0  0  0
   13.1696  -20.5369    0.0000 C   0  0  0  0  0  0  0  0  0  0  0  0
   12.4139  -20.8732    0.0000 C   0  0  0  0  0  0  0  0  0  0  0  0
   11.8629  -20.2592    0.0000 C   0  0  0  0  0  0  0  0  0  0  0  0
   11.0437  -20.3437    0.0000 C   0  0  0  0  0  0  0  0  0  0  0  0
   12.2738  -19.5461    0.0000 N   0  0  0  0  0  0  0  0  0  0  0  0
   13.0809  -19.7178    0.0000 N   0  0  0  0  0  0  0  0  0  0  0  0
   14.5958  -22.1848    0.0000 C   0  0  0  0  0  0  0  0  0  0  0  0
   15.3089  -21.7739    0.0000 C   0  0  0  0  0  0  0  0  0  0  0  0
   16.0262  -22.1848    0.0000 C   0  0  0  0  0  0  0  0  0  0  0  0
   16.7392  -21.7739    0.0000 F   0  0  0  0  0  0  0  0  0  0  0  0
   16.0262  -23.0108    0.0000 C   0  0  0  0  0  0  0  0  0  0  0  0
   15.3089  -23.4218    0.0000 C   0  0  0  0  0  0  0  0  0  0  0  0
   14.5958  -23.0108    0.0000 C   0  0  0  0  0  0  0  0  0  0  0  0
   13.8826  -23.4218    0.0000 C   0  0  0  0  0  0  0  0  0  0  0  0
   13.8826  -24.2477    0.0000 O   0  0  0  0  0  0  0  0  0  0  0  0
  1  2  1  0  0  0  0 
  2  3  1  0  0  0  0 
  2  4  1  0  0  0  0 
  4  5  1  0  0  0  0 
  5  6  2  0  0  0  0 
  6  7  1  0  0  0  0 
  7  8  1  0  0  0  0 
  8  9  1  0  0  0  0 
  9 10  2  0  0  0  0 
 10 11  1  0  0  0  0 
 10 12  1  0  0  0  0 
 12 13  1  0  0  0  0 
  8 13  2  0  0  0  0 
  6 14  1  0  0  0  0 
 14 15  1  0  0  0  0 
 15 16  2  0  0  0  0 
 16 17  1  0  0  0  0 
 16 18  1  0  0  0  0 
 18 19  2  0  0  0  0 
 19 20  1  0  0  0  0 
 14 20  2  0  0  0  0 
 20 21  1  0  0  0  0 
  4 21  1  0  0  0  0 
 21 22  2  0  0  0  0 
M  END

>  <pIC50>
4.05799194698

$$$$
